%nproc=1
%NoSave
%Mem=1900MB
#P OB98/GEN NMR

erre ene a

0 1
  C       12.863     585.693     543.413
  O       12.608     586.860     542.659
  P       11.435     587.893     542.989
  C       10.523     587.670     540.536
  O       10.919     588.530     541.604
  C        9.683     588.434     539.498
  O        9.478     587.570     538.350
  C        8.293     588.794     540.062
  O        7.845     590.096     539.722
  C        7.434     587.616     539.605
  O        6.042     587.890     539.598
  C        8.057     587.275     538.249
  N        7.910     584.104     534.279
  C        8.363     585.409     534.332
  N        8.642     585.995     533.146
  N        8.499     586.087     535.451
  C        8.066     585.406     536.545
  C        7.608     584.114     536.619
  C        7.491     583.368     535.374
  O        6.998     582.248     535.273
  N        7.203     583.783     537.895
  C        7.400     584.885     538.576
  N        7.895     585.913     537.805
  O       11.645     588.805     544.144
  O       10.219     586.895     543.364
  H        5.590     587.092     539.280
  H        9.680     587.341     544.060
  H        7.747     583.664     533.386
  H        7.171     585.003     539.643
  H        7.651     587.906     537.457
  H        7.587     586.791     540.322
  H        8.402     585.551     532.273
  H        8.317     588.810     541.158
  H        8.731     587.006     533.135
  H       10.231     589.320     539.165
  H        9.945     586.871     540.989
  H       11.408     587.221     540.065
  P        7.313     591.250     540.679
  C        4.824     590.921     540.129
  O        5.930     591.812     540.105
  O        8.322     592.478     540.452
  O        7.279     590.890     542.141
  H        8.511     592.919     541.297
  H        4.054     591.308     539.466
  H        4.431     590.853     541.142
  H        5.128     589.921     539.777
  H       13.697     585.171     542.992
  H       12.000     585.060     543.394
  H       13.085     585.963     544.424

 3  4  5  6  7  8  9  10  11  12  23  26  30  31 0
 6-311+G(2d,p)
 ****
 33  35  36  37  38 0
 6-311+G(2d,p)
 ****
 1  2  13  14  15  16  17  18  19  20  21  22  24  25 0
 3-21G
 ****
 27  28  29  32  34  39  40  41  42  43  44  45  46  47  48  49 0
 3-21G
 ****


