%nproc=1
%NoSave
%Mem=1900MB
#P OB98/GEN NMR

erre ene a

0 1
  C     -348.082     123.819    -102.393
  O     -349.214     122.992    -102.189
  P     -350.381     123.463    -101.201
  C     -350.450     121.083    -100.154
  O     -351.167     122.144    -100.742
  C     -351.397     120.052     -99.524
  O     -351.967     120.644     -98.331
  C     -352.581     119.653    -100.400
  O     -353.124     118.429     -99.901
  C     -353.554     120.783    -100.138
  O     -354.892     120.431    -100.474
  C     -353.304     121.100     -98.642
  N     -353.430     122.543     -98.367
  C     -354.718     123.070     -98.337
  O     -355.728     122.375     -98.451
  N     -354.807     124.432     -98.254
  C     -353.747     125.291     -98.249
  O     -353.839     126.491     -98.486
  C     -352.429     124.674     -98.041
  C     -352.327     123.345     -98.136
  O     -351.406     124.193    -102.189
  O     -349.945     124.357    -100.092
  H     -355.441     121.241    -100.343
  H     -351.255     125.159    -102.179
  H     -355.733     124.821     -98.379
  H     -351.578     125.322     -97.882
  H     -351.357     122.864     -98.038
  H     -354.017     120.571     -97.998
  H     -353.275     121.647    -100.757
  H     -352.342     119.558    -101.462
  H     -350.825     119.168     -99.223
  H     -349.763     121.485     -99.401
  H     -349.828     120.582    -100.903
  P     -353.708     117.378    -100.965
  C     -356.108     117.726    -100.121
  O     -355.059     116.799    -100.330
  O     -352.745     116.358    -101.471
  O     -354.247     118.323    -102.144
  H     -354.351     117.802    -102.960
  H     -357.063     117.201    -100.199
  H     -356.085     118.532    -100.861
  H     -356.015     118.152     -99.117
  H     -347.413     123.344    -103.080
  H     -347.583     123.977    -101.460
  H     -348.396     124.760    -102.793

 3  4  5  6  7  8  9  10  11  12  13  23  28  29  30  31  32 0
 6-311+G(2d,p)
 ****
 33  34 0
 6-311+G(2d,p)
 ****
 1  2  14  15  16  17  18  19  20  21  22  24  25  26  27 0
 3-21G
 ****
 35  36  37  38  39  40  41  42  43  44  45 0
 3-21G
 ****


