%nproc=1
%NoSave
%Mem=1900MB
#P OB98/GEN NMR

erre ene a

0 1
  C       63.618      67.282      -6.135
  O       64.354      66.221      -5.553
  P       65.103      65.210      -6.550
  C       63.056      63.602      -6.521
  O       63.965      64.369      -7.301
  C       61.938      63.054      -7.405
  O       61.288      64.131      -8.108
  C       62.401      62.086      -8.485
  O       62.697      60.811      -7.938
  C       61.198      62.115      -9.420
  O       60.147      61.286      -8.899
  C       60.782      63.595      -9.360
  N       59.607      66.645     -13.299
  C       58.835      65.991     -12.404
  N       59.220      65.180     -11.398
  C       60.558      65.078     -11.357
  C       61.471      65.667     -12.214
  C       60.949      66.489     -13.224
  N       61.740      67.151     -14.138
  N       62.760      65.313     -11.876
  C       62.628      64.532     -10.825
  N       61.318      64.371     -10.464
  O       65.761      64.142      -5.560
  O       66.121      65.847      -7.444
  H       60.138      61.406      -7.928
  H       66.615      63.822      -5.909
  H       57.763      66.140     -12.509
  H       63.445      64.067     -10.291
  H       59.694      63.726      -9.361
  H       61.428      61.757     -10.429
  H       63.285      62.481      -9.000
  H       61.197      62.572      -6.754
  H       62.614      64.236      -5.746
  H       61.280      67.597     -14.917
  H       62.725      66.920     -14.168
  H       63.603      62.791      -6.033
  P       63.525      59.790      -8.859
  C       61.494      58.234      -9.079
  O       62.396      59.086      -9.760
  O       63.902      58.644      -7.813
  O       64.665      60.397      -9.601
  H       63.132      58.356      -7.292
  H       60.753      57.867      -9.794
  H       60.980      58.783      -8.284
  H       62.031      57.380      -8.657
  H       63.174      67.874      -5.362
  H       62.850      66.881      -6.763
  H       64.274      67.893      -6.719

 3  4  5  6  7  8  9  10  11  12  22  25  29  30  31  32 0
 6-311+G(2d,p)
 ****
 33  36  37 0
 6-311+G(2d,p)
 ****
 1  2  13  14  15  16  17  18  19  20  21  23  24  26 0
 3-21G
 ****
 27  28  34  35  38  39  40  41  42  43  44  45  46  47  48 0
 3-21G
 ****


