%nproc=1
%NoSave
%Mem=1900MB
#P OB98/GEN NMR

erre ene a

0 1
  C      132.155      29.530      83.722
  O      132.707      30.411      82.758
  P      134.226      30.894      82.863
  C      135.596      28.753      82.208
  O      135.135      29.631      83.211
  C      136.962      28.193      82.627
  O      138.015      29.083      82.203
  C      137.061      28.033      84.142
  O      136.723      26.710      84.528
  C      138.508      28.392      84.419
  O      139.366      27.266      84.156
  C      138.757      29.509      83.377
  N      138.330      30.880      83.714
  C      138.796      31.952      82.959
  O      139.535      31.831      81.987
  N      138.396      33.195      83.381
  C      137.561      33.451      84.429
  O      137.407      34.554      84.940
  C      136.894      32.280      85.006
  C      137.318      31.070      84.646
  O      134.242      31.745      84.217
  O      134.731      31.683      81.700
  H      140.283      27.591      84.187
  H      134.179      32.699      84.025
  H      138.843      33.984      82.923
  H      136.120      32.442      85.743
  H      136.865      30.186      85.089
  H      139.815      29.560      83.102
  H      138.658      28.650      85.465
  H      136.416      28.765      84.645
  H      137.116      27.227      82.131
  H      135.677      29.283      81.253
  H      134.881      27.936      82.065
  P      136.139      26.439      85.993
  C      133.675      26.366      85.294
  O      134.672      27.087      85.988
  O      137.020      26.855      87.124
  O      135.873      24.860      85.995
  H      136.620      24.398      86.427
  H      132.702      26.809      85.515
  H      133.669      25.317      85.607
  H      133.856      26.430      84.217
  H      131.133      29.328      83.477
  H      132.207      29.983      84.690
  H      132.708      28.614      83.727

 3  4  5  6  7  8  9  10  11  12  13  23  28  29  30  31  32 0
 6-311+G(2d,p)
 ****
 33  34 0
 6-311+G(2d,p)
 ****
 1  2  14  15  16  17  18  19  20  21  22  24  25  26  27 0
 3-21G
 ****
 35  36  37  38  39  40  41  42  43  44  45 0
 3-21G
 ****


