%nproc=1
%NoSave
%Mem=1900MB
#P OB98/GEN NMR

erre ene a

0 1
  C      -55.406     165.307    -146.492
  O      -54.286     165.303    -145.629
  H      -55.105     165.715    -147.459
  H      -56.189     165.944    -146.072
  H      -55.789     164.292    -146.638
  P      -54.415     164.469    -144.267
  C      -53.369     162.118    -144.574
  O      -53.156     163.471    -144.204
  C      -52.031     161.423    -144.844
  O      -51.307     162.184    -145.850
  C      -51.129     161.314    -143.606
  O      -50.457     160.049    -143.637
  C      -50.122     162.434    -143.801
  O      -48.890     162.189    -143.122
  C      -49.999     162.467    -145.322
  N      -46.008     164.905    -147.205
  C      -46.186     163.561    -146.929
  N      -45.139     162.746    -147.185
  N      -47.293     163.063    -146.443
  C      -48.266     163.993    -146.270
  C      -48.211     165.347    -146.498
  C      -46.970     165.891    -147.011
  O      -46.742     167.072    -147.251
  N      -49.396     165.956    -146.166
  C      -50.163     164.971    -145.734
  N      -49.525     163.762    -145.785
  O      -55.653     163.493    -144.553
  O      -54.636     165.284    -143.034
  H      -48.551     161.321    -143.433
  H      -56.390     163.709    -143.950
  H      -45.130     165.236    -147.566
  H      -51.175     165.080    -145.372
  H      -49.302     161.712    -145.704
  H      -50.539     163.374    -143.422
  H      -44.277     163.052    -147.607
  H      -51.675     161.409    -142.666
  H      -45.261     161.749    -147.028
  H      -52.231     160.435    -145.276
  H      -53.983     162.090    -145.477
  H      -53.897     161.599    -143.766
  P      -50.810     159.008    -142.468
  C      -52.627     157.202    -142.860
  O      -51.305     157.636    -143.144
  O      -52.145     159.618    -141.830
  O      -49.732     158.860    -141.443
  H      -51.950     159.999    -140.953
  H      -52.818     156.283    -143.373
  H      -53.324     157.945    -143.187
  H      -52.734     157.052    -141.806

 6  7  8  9  10  11  12  13  14  15  26  29  33  34 0
 6-311+G(2d,p)
 ****
 36  38  39  40  41 0
 6-311+G(2d,p)
 ****
 1  2  3  4  5  16  17  18  19  20  21  22  23  24  25 0
 3-21G
 ****
 27  28  30  31  32  35  37  42  43  44  45  46  47 0
 3-21G
 ****
 48  49 0
 3-21G
 ****


