%nproc=1
%NoSave
%Mem=1900MB
#P OB98/GEN NMR

erre ene a

0 1
  C      235.488    -334.075     214.201
  O      236.495    -334.074     213.210
  P      237.526    -335.301     213.160
  C      237.766    -335.726     210.602
  O      238.347    -335.195     211.788
  C      238.781    -335.685     209.448
  O      238.957    -334.289     209.029
  C      240.170    -336.237     209.793
  O      240.693    -336.851     208.607
  C      240.958    -334.989     210.110
  O      242.357    -335.173     210.044
  C      240.380    -334.030     209.054
  N      240.665    -332.623     209.340
  C      241.882    -332.108     208.895
  O      242.715    -332.764     208.271
  N      242.134    -330.811     209.233
  C      241.374    -330.021     210.043
  O      241.724    -328.903     210.409
  C      240.101    -330.614     210.501
  C      239.809    -331.864     210.137
  O      236.576    -336.573     212.935
  O      238.372    -335.447     214.376
  H      242.779    -334.392     210.445
  H      236.424    -337.040     213.780
  H      243.010    -330.418     208.907
  H      239.460    -330.008     211.119
  H      238.887    -332.342     210.469
  H      240.779    -334.284     208.067
  H      240.715    -334.654     211.129
  H      240.148    -336.960     210.629
  H      238.348    -336.216     208.589
  H      236.886    -335.142     210.338
  H      237.435    -336.759     210.782
  P      241.845    -337.966     208.788
  C      241.731    -338.865     206.331
  O      242.473    -338.204     207.335
  O      240.958    -339.279     209.042
  O      242.813    -337.664     209.892
  H      240.190    -339.334     208.437
  H      240.662    -338.630     206.403
  H      241.868    -339.944     206.419
  H      242.093    -338.537     205.342
  H      234.888    -333.195     214.100
  H      235.941    -334.088     215.170
  H      234.872    -334.942     214.083

 3  4  5  6  7  8  9  10  11  12  13  23  28  29  30  31  32 0
 6-311+G(2d,p)
 ****
 33  34 0
 6-311+G(2d,p)
 ****
 1  2  14  15  16  17  18  19  20  21  22  24  25  26 0
 3-21G
 ****
 27  35  36  37  38  39  40  41  42  43  44  45 0
 3-21G
 ****


