%nproc=1
%NoSave
%Mem=1900MB
#P OB98/GEN NMR

erre ene a

0 1
  C      450.764    -102.346     305.127
  O      451.588    -101.283     304.668
  P      452.633    -101.600     303.488
  C      454.645    -101.670     305.130
  O      453.846    -102.385     304.186
  C      455.828    -102.528     305.582
  O      455.355    -103.775     306.131
  C      456.798    -102.906     304.473
  O      457.722    -101.862     304.187
  C      457.509    -104.092     305.099
  O      458.506    -103.634     306.028
  C      456.361    -104.785     305.852
  N      457.094    -109.520     304.065
  C      457.914    -108.673     304.714
  N      457.645    -107.423     305.150
  C      456.399    -107.053     304.812
  C      455.460    -107.809     304.120
  C      455.845    -109.103     303.744
  N      454.998    -109.987     303.106
  N      454.289    -107.092     303.962
  C      454.508    -105.946     304.558
  N      455.766    -105.872     305.099
  O      453.258    -100.161     303.158
  O      452.038    -102.245     302.279
  H      458.766    -104.407     306.570
  H      453.614    -100.157     302.252
  H      458.915    -109.044     304.923
  H      453.791    -105.136     304.633
  H      456.685    -105.194     306.817
  H      458.016    -104.726     304.367
  H      456.263    -103.232     303.567
  H      456.355    -101.985     306.382
  H      454.039    -101.415     306.001
  H      455.281    -110.949     303.041
  H      454.011    -109.741     303.055
  H      455.005    -100.741     304.663
  P      458.287    -101.789     302.684
  C      460.479    -103.024     303.318
  O      459.297    -103.018     302.539
  O      459.240    -100.501     302.723
  O      457.226    -101.681     301.641
  H      459.323    -100.112     301.836
  H      460.888    -104.041     303.339
  H      460.287    -102.704     304.344
  H      461.224    -102.360     302.860
  H      450.124    -101.990     305.907
  H      451.379    -103.137     305.503
  H      450.169    -102.711     304.316

 3  4  5  6  7  8  9  10  11  12  22  25  29  30  31  32 0
 6-311+G(2d,p)
 ****
 33  36  37 0
 6-311+G(2d,p)
 ****
 1  2  13  14  15  16  17  18  19  20  21  23  24  26 0
 3-21G
 ****
 27  28  34  35  38  39  40  41  42  43  44  45  46  47  48 0
 3-21G
 ****


