%nproc=1
%NoSave
%Mem=1900MB
#P OB98/GEN NMR

erre ene a

0 1
  C     -189.217     158.948     273.423
  O     -188.152     158.041     273.177
  P     -187.969     157.490     271.680
  C     -187.204     159.790     270.652
  O     -188.177     158.759     270.721
  C     -186.795     160.030     269.196
  O     -186.084     158.879     268.691
  C     -187.957     160.245     268.238
  O     -188.498     161.554     268.345
  C     -187.294     159.941     266.896
  O     -186.543     161.077     266.441
  C     -186.339     158.788     267.271
  N     -186.858     157.470     266.908
  C     -186.712     157.098     265.575
  O     -186.178     157.813     264.731
  N     -187.219     155.867     265.242
  C     -187.897     155.026     266.076
  O     -188.369     153.955     265.711
  C     -188.051     155.489     267.462
  C     -187.534     156.670     267.809
  O     -189.309     156.632     271.515
  O     -186.701     156.730     271.486
  H     -190.026     156.970     272.082
  H     -186.026     160.776     265.669
  H     -187.101     155.565     264.287
  H     -188.591     154.851     268.150
  H     -187.643     157.032     268.823
  H     -185.370     158.924     266.780
  H     -188.018     159.691     266.114
  H     -188.744     159.505     268.433
  H     -186.109     160.888     269.168
  H     -186.326     159.495     271.235
  H     -187.622     160.705     271.087
  P     -189.976     161.769     267.755
  C     -191.083     160.525     269.770
  O     -190.882     160.605     268.375
  O     -189.767     161.338     266.227
  O     -190.497     163.160     267.940
  H     -189.217     160.543     266.133
  H     -191.976     159.925     269.962
  H     -191.222     161.518     270.211
  H     -190.223     160.036     270.235
  H     -189.216     159.228     274.456
  H     -190.148     158.479     273.181
  H     -189.089     159.821     272.817

 3  4  5  6  7  8  9  10  11  12  13  24  28  29  30  31  32 0
 6-311+G(2d,p)
 ****
 33  34 0
 6-311+G(2d,p)
 ****
 1  2  14  15  16  17  18  19  20  21  22  23  25  26  27 0
 3-21G
 ****
 35  36  37  38  39  40  41  42  43  44  45 0
 3-21G
 ****


