%nproc=1
%NoSave
%Mem=1900MB
#P OB98/GEN NMR

erre ene a

0 1
  C     -219.842      61.193      59.039
  O     -220.130      59.888      59.497
  H     -220.784      61.712      58.844
  H     -219.270      61.147      58.108
  H     -219.283      61.756      59.792
  P     -218.928      58.974      60.031
  C     -216.849      57.865      58.977
  O     -218.091      58.512      58.746
  C     -216.312      57.241      57.683
  O     -217.237      56.194      57.255
  C     -216.177      58.233      56.510
  O     -215.094      57.771      55.692
  C     -217.515      58.039      55.817
  O     -217.557      58.634      54.545
  C     -217.620      56.509      55.896
  N     -218.932      55.954      55.590
  C     -219.266      55.788      54.250
  O     -218.531      56.072      53.304
  N     -220.513      55.272      54.007
  C     -221.427      54.900      54.950
  O     -222.516      54.415      54.673
  C     -221.019      55.107      56.347
  C     -219.808      55.610      56.601
  O     -219.315      57.874      60.963
  O     -217.942      60.023      60.737
  H     -218.059      59.980      61.706
  H     -216.946      58.152      53.947
  H     -220.771      55.141      53.041
  H     -221.725      54.834      57.121
  H     -219.476      55.764      57.622
  H     -216.873      56.050      55.241
  H     -218.309      58.515      56.397
  H     -215.980      59.257      56.834
  H     -215.356      56.750      57.898
  H     -217.006      57.083      59.728
  H     -216.132      58.595      59.367
  P     -213.629      58.430      55.711
  C     -212.463      60.501      54.684
  O     -213.685      59.798      54.874
  O     -212.541      57.501      55.272
  O     -213.401      58.911      57.222
  H     -212.446      58.929      57.418
  H     -212.646      61.387      54.113
  H     -211.770      59.876      54.160
  H     -212.053      60.768      55.636

 6  7  8  9  10  11  12  13  14  15  16  27  31  32  33  34  35 0
 6-311+G(2d,p)
 ****
 36  37 0
 6-311+G(2d,p)
 ****
 1  2  3  4  5  17  18  19  20  21  22  23  24  25 0
 3-21G
 ****
 26  28  29  30  38  39  40  41  42  43  44  45 0
 3-21G
 ****


