%nproc=1
%NoSave
%Mem=1900MB
#P OB98/GEN NMR

erre ene a

0 1
  C     -319.009    -111.780    -170.821
  O     -319.951    -112.837    -170.856
  H     -319.476    -110.914    -170.340
  H     -318.719    -111.502    -171.840
  H     -318.124    -112.061    -170.246
  P     -319.448    -114.305    -171.259
  C     -318.754    -115.499    -173.444
  O     -319.234    -114.297    -172.852
  C     -318.836    -115.424    -174.966
  O     -320.232    -115.218    -175.355
  C     -318.023    -114.256    -175.587
  O     -317.558    -114.696    -176.877
  C     -319.092    -113.191    -175.723
  O     -318.678    -112.136    -176.556
  C     -320.264    -114.050    -176.202
  N     -321.549    -113.377    -176.136
  C     -321.971    -112.687    -177.272
  O     -321.333    -112.641    -178.325
  N     -323.173    -112.030    -177.148
  C     -323.962    -111.994    -176.042
  O     -325.043    -111.408    -176.000
  C     -323.447    -112.716    -174.864
  C     -322.288    -113.364    -174.967
  O     -320.273    -115.441    -170.740
  O     -317.952    -114.363    -170.697
  H     -317.942    -114.820    -169.831
  H     -318.405    -112.477    -177.430
  H     -323.492    -111.527    -177.965
  H     -324.043    -112.688    -173.964
  H     -321.877    -113.907    -174.111
  H     -320.091    -114.400    -177.230
  H     -319.310    -112.750    -174.737
  H     -317.162    -113.962    -174.968
  H     -318.524    -116.391    -175.394
  H     -319.369    -116.329    -173.078
  H     -317.714    -115.665    -173.134
  P     -316.014    -114.708    -177.305
  C     -314.219    -113.055    -178.156
  O     -315.588    -113.238    -177.797
  O     -315.666    -115.786    -178.276
  O     -315.199    -114.897    -175.930
  H     -314.404    -115.454    -176.112
  H     -314.063    -112.042    -178.464
  H     -313.970    -113.715    -178.961
  H     -313.597    -113.271    -177.312

 6  7  8  9  10  11  12  13  14  15  16  27  31  32  33  34  35 0
 6-311+G(2d,p)
 ****
 36  37 0
 6-311+G(2d,p)
 ****
 1  2  3  4  5  17  18  19  20  21  22  23  24  25 0
 3-21G
 ****
 26  28  29  30  38  39  40  41  42  43  44  45 0
 3-21G
 ****


