%nproc=1
%NoSave
%Mem=1900MB
#P OB98/GEN NMR

erre ene a

0 1
  C      433.468      54.842    1282.750
  O      433.840      53.493    1282.934
  H      434.369      55.441    1282.579
  H      432.965      55.223    1283.648
  H      432.808      54.936    1281.885
  P      432.676      52.459    1283.312
  C      432.443      51.662    1280.852
  O      431.805      52.238    1281.984
  C      431.826      50.296    1280.557
  O      430.462      50.462    1280.080
  C      432.543      49.507    1279.472
  O      433.721      48.878    1279.941
  C      431.469      48.509    1279.079
  O      431.466      47.366    1279.948
  C      430.170      49.321    1279.237
  N      429.629      49.733    1277.943
  C      428.294      49.426    1277.728
  O      427.593      48.838    1278.559
  N      427.790      49.765    1276.498
  C      428.497      50.330    1275.478
  O      427.993      50.558    1274.375
  C      429.908      50.622    1275.756
  C      430.411      50.307    1276.951
  O      431.714      53.319    1284.257
  O      433.139      51.208    1283.978
  H      431.821      53.032    1285.184
  H      430.777      46.770    1279.599
  H      426.822      49.545    1276.329
  H      430.499      51.065    1274.964
  H      431.454      50.509    1277.175
  H      429.405      48.741    1279.758
  H      431.626      48.148    1278.066
  H      432.753      50.156    1278.608
  H      431.798      49.717    1281.494
  H      433.514      51.531    1281.051
  H      432.328      52.338    1279.995
  P      435.034      48.954    1279.020
  C      436.106      50.954    1280.365
  O      435.563      50.467    1279.145
  O      434.380      48.878    1277.552
  O      436.039      47.886    1279.319
  H      433.463      49.224    1277.551
  H      436.398      51.976    1280.243
  H      436.960      50.369    1280.634
  H      435.368      50.884    1281.137

 6  7  8  9  10  11  12  13  14  15  16  27  31  32  33  34  35 0
 6-311+G(2d,p)
 ****
 36  37 0
 6-311+G(2d,p)
 ****
 1  2  3  4  5  17  18  19  20  21  22  23  24  25 0
 3-21G
 ****
 26  28  29  30  38  39  40  41  42  43  44  45 0
 3-21G
 ****


