%nproc=1
%NoSave
%Mem=1900MB
#P OB98/GEN NMR

erre ene a

0 1
  C      186.714      10.686    -199.701
  O      185.578      10.137    -199.065
  H      187.510       9.940    -199.760
  H      186.439      10.988    -200.715
  H      187.066      11.564    -199.154
  P      185.779       9.592    -197.570
  C      185.160      11.623    -196.082
  O      184.737      10.385    -196.637
  C      184.522      11.823    -194.710
  O      185.346      12.742    -193.951
  C      183.090      12.385    -194.745
  O      182.191      11.494    -194.078
  C      183.169      13.676    -193.944
  O      182.040      13.884    -193.099
  C      184.453      13.513    -193.139
  N      184.267      17.404    -189.855
  C      183.870      16.118    -189.739
  N      184.044      15.105    -190.611
  C      184.731      15.519    -191.689
  C      185.222      16.789    -191.936
  C      184.949      17.768    -190.966
  N      185.306      19.090    -191.109
  N      185.870      16.835    -193.158
  C      185.733      15.623    -193.657
  N      185.036      14.800    -192.814
  O      187.199      10.200    -197.145
  O      185.750       8.107    -197.428
  H      181.880      13.041    -192.632
  H      187.751       9.499    -196.750
  H      183.333      15.872    -188.828
  H      186.075      15.303    -194.633
  H      184.287      12.966    -192.203
  H      183.241      14.521    -194.639
  H      182.736      12.576    -195.764
  H      184.538      10.863    -194.180
  H      184.853      12.444    -196.739
  H      184.968      19.743    -190.420
  H      185.716      19.387    -191.982
  H      186.252      11.625    -196.007
  P      180.872      11.058    -194.892
  C      181.254       8.484    -194.945
  O      180.495       9.568    -194.428
  O      181.422      10.852    -196.382
  O      179.768      12.058    -194.836
  H      180.706      11.001    -197.026
  H      180.882       7.565    -194.543
  H      182.281       8.604    -194.669
  H      181.171       8.467    -196.012

 6  7  8  9  10  11  12  13  14  15  25  28  32  33  34  35 0
 6-311+G(2d,p)
 ****
 36  39  40 0
 6-311+G(2d,p)
 ****
 1  2  3  4  5  16  17  18  19  20  21  22  23  24 0
 3-21G
 ****
 26  27  29  30  31  37  38  41  42  43  44  45  46  47  48 0
 3-21G
 ****


