%nproc=1
%NoSave
%Mem=1900MB
#P OB98/GEN NMR

erre ene a

0 1
  C     -217.412     348.258    -183.245
  O     -216.187     347.833    -183.853
  P     -214.830     348.095    -183.037
  C     -214.117     350.054    -184.625
  O     -213.823     348.775    -184.081
  C     -212.913     350.583    -185.407
  O     -211.787     350.793    -184.521
  C     -212.410     349.636    -186.484
  O     -213.269     349.631    -187.613
  C     -211.018     350.207    -186.740
  O     -211.100     351.347    -187.606
  C     -210.591     350.646    -185.326
  N     -209.644     349.730    -184.703
  C     -208.319     349.853    -185.121
  O     -207.956     350.657    -185.977
  N     -207.428     348.998    -184.534
  C     -207.727     348.035    -183.612
  O     -206.880     347.307    -183.111
  C     -209.146     347.922    -183.244
  C     -210.029     348.760    -183.799
  O     -214.281     346.604    -182.863
  O     -215.051     348.843    -181.765
  H     -214.476     346.038    -183.629
  H     -210.186     351.685    -187.706
  H     -206.461     349.078    -184.811
  H     -209.423     347.154    -182.536
  H     -211.080     348.690    -183.545
  H     -210.125     351.640    -185.364
  H     -210.351     349.482    -187.214
  H     -212.325     348.620    -186.079
  H     -213.192     351.549    -185.848
  H     -214.358     350.754    -183.819
  H     -215.000     349.972    -185.267
  P     -214.390     348.476    -187.668
  C     -213.008     347.495    -189.658
  O     -214.273     347.801    -189.114
  O     -215.729     349.350    -187.748
  O     -214.335     347.534    -186.507
  H     -215.660     350.090    -188.373
  H     -213.136     346.752    -190.452
  H     -212.335     347.088    -188.901
  H     -212.566     348.399    -190.092
  H     -218.231     348.024    -183.892
  H     -217.380     349.314    -183.078
  H     -217.540     347.753    -182.310

 3  4  5  6  7  8  9  10  11  12  13  24  28  29  30  31  32 0
 6-311+G(2d,p)
 ****
 33  34 0
 6-311+G(2d,p)
 ****
 1  2  14  15  16  17  18  19  20  21  22  23  25  26  27 0
 3-21G
 ****
 35  36  37  38  39  40  41  42  43  44  45 0
 3-21G
 ****


