%nproc=1
%NoSave
%Mem=1900MB
#P OB98/GEN NMR

erre ene a

0 1
  C     -716.380    -219.161    -222.543
  O     -716.549    -218.210    -221.480
  P     -716.195    -218.702    -219.991
  C     -714.200    -217.016    -219.803
  O     -714.637    -218.366    -219.777
  C     -712.718    -216.955    -220.194
  O     -712.564    -217.072    -221.630
  C     -712.031    -215.652    -219.817
  O     -711.763    -215.584    -218.421
  C     -710.784    -215.721    -220.698
  O     -709.800    -216.568    -220.093
  C     -711.344    -216.386    -221.980
  N     -711.549    -215.446    -223.065
  C     -710.483    -215.295    -223.961
  O     -709.417    -215.901    -223.833
  N     -710.683    -214.419    -224.981
  C     -711.800    -213.662    -225.192
  O     -711.928    -212.893    -226.137
  C     -712.869    -213.819    -224.190
  C     -712.698    -214.697    -223.196
  O     -716.240    -220.290    -220.168
  O     -717.128    -218.148    -218.962
  H     -715.921    -220.584    -221.033
  H     -709.018    -216.545    -220.683
  H     -709.930    -214.309    -225.645
  H     -713.767    -213.216    -224.304
  H     -713.475    -214.814    -222.445
  H     -710.642    -217.159    -222.331
  H     -710.332    -214.744    -220.857
  H     -712.650    -214.795    -220.119
  H     -712.211    -217.805    -219.720
  H     -714.324    -216.564    -218.821
  H     -714.818    -216.446    -220.507
  P     -712.823    -214.764    -217.527
  C     -713.953    -216.959    -216.653
  O     -714.083    -215.718    -217.322
  O     -713.338    -213.675    -218.581
  O     -712.237    -214.193    -216.283
  H     -713.521    -214.034    -219.457
  H     -714.927    -217.292    -216.306
  H     -713.283    -216.863    -215.781
  H     -713.549    -217.713    -217.336
  H     -716.649    -218.707    -223.474
  H     -717.007    -220.009    -222.366
  H     -715.358    -219.475    -222.581

 3  4  5  6  7  8  9  10  11  12  13  24  28  29  30  31  32 0
 6-311+G(2d,p)
 ****
 33  34 0
 6-311+G(2d,p)
 ****
 1  2  14  15  16  17  18  19  20  21  22  23  25  26  27 0
 3-21G
 ****
 35  36  37  38  39  40  41  42  43  44  45 0
 3-21G
 ****


