%nproc=1
%NoSave
%Mem=1900MB
#P OB98/GEN NMR

erre ene a

0 1
  C      337.594    -196.024     411.618
  O      336.468    -196.546     410.943
  H      338.406    -195.900     410.898
  H      337.918    -196.722     412.392
  H      337.372    -195.051     412.063
  P      335.052    -196.556     411.693
  C      333.838    -195.341     409.769
  O      333.930    -196.529     410.544
  C      332.489    -195.263     409.051
  O      332.437    -196.304     408.033
  C      331.278    -195.466     409.977
  O      330.195    -194.700     409.437
  C      331.008    -196.949     409.810
  O      329.714    -197.292     410.248
  C      331.288    -197.123     408.314
  N      331.503    -198.521     407.944
  C      330.373    -199.335     407.897
  O      329.244    -198.935     408.177
  N      330.591    -200.643     407.560
  C      331.808    -201.215     407.330
  O      331.946    -202.404     407.066
  C      332.968    -200.320     407.439
  C      332.769    -199.031     407.735
  O      334.877    -195.530     412.761
  O      334.920    -198.043     412.271
  H      329.595    -198.266     410.223
  H      334.391    -198.040     413.092
  H      329.782    -201.240     407.510
  H      333.951    -200.746     407.274
  H      333.603    -198.346     407.818
  H      330.446    -196.744     407.715
  H      331.718    -197.538     410.400
  H      331.472    -195.178     411.011
  H      332.426    -194.300     408.527
  H      334.649    -195.355     409.033
  H      333.964    -194.469     410.418
  P      329.657    -193.365     410.146
  C      330.140    -191.215     408.807
  O      329.248    -192.307     409.007
  O      330.574    -192.814     411.189
  O      328.253    -193.778     410.788
  H      328.070    -193.223     411.569
  H      329.763    -190.584     408.029
  H      331.103    -191.588     408.528
  H      330.224    -190.652     409.713

 6  7  8  9  10  11  12  13  14  15  16  26  31  32  33  34  35 0
 6-311+G(2d,p)
 ****
 36  37 0
 6-311+G(2d,p)
 ****
 1  2  3  4  5  17  18  19  20  21  22  23  24  25 0
 3-21G
 ****
 27  28  29  30  38  39  40  41  42  43  44  45 0
 3-21G
 ****


