%nproc=1
%NoSave
%Mem=1900MB
#P OB98/GEN NMR

erre ene a

0 1
  C     -412.708    -524.360     287.076
  O     -413.459    -523.391     287.784
  H     -411.645    -524.110     287.164
  H     -412.979    -524.347     286.017
  H     -412.869    -525.359     287.492
  P     -415.030    -523.630     287.988
  C     -415.857    -521.745     286.421
  O     -415.743    -522.210     287.765
  C     -415.621    -520.241     286.366
  O     -416.581    -519.554     287.203
  C     -414.246    -519.807     286.867
  O     -413.248    -520.087     285.905
  C     -414.495    -518.329     287.129
  O     -414.434    -517.576     285.913
  C     -415.943    -518.357     287.692
  N     -415.990    -518.293     289.153
  C     -417.186    -517.868     289.722
  O     -418.156    -517.511     289.054
  N     -417.222    -517.841     291.092
  C     -416.172    -518.118     291.929
  O     -416.250    -518.030     293.153
  C     -414.924    -518.532     291.275
  C     -414.893    -518.600     289.942
  O     -415.423    -524.343     289.240
  O     -415.458    -524.452     286.680
  H     -413.559    -517.761     285.511
  H     -415.531    -525.399     286.897
  H     -418.075    -517.527     291.525
  H     -414.078    -518.747     291.906
  H     -413.972    -518.894     289.439
  H     -416.516    -517.506     287.299
  H     -413.756    -517.889     287.809
  H     -414.017    -520.301     287.824
  H     -415.781    -519.909     285.328
  H     -416.870    -521.975     286.060
  H     -415.127    -522.281     285.803
  P     -411.711    -520.162     286.324
  C     -410.938    -518.731     284.341
  O     -410.828    -519.995     284.987
  O     -411.334    -521.337     287.167
  O     -411.446    -518.789     287.103
  H     -411.372    -518.958     288.063
  H     -410.318    -518.721     283.469
  H     -410.623    -517.959     285.012
  H     -411.956    -518.563     284.056

 6  7  8  9  10  11  12  13  14  15  16  26  31  32  33  34  35 0
 6-311+G(2d,p)
 ****
 36  37 0
 6-311+G(2d,p)
 ****
 1  2  3  4  5  17  18  19  20  21  22  23  24  25 0
 3-21G
 ****
 27  28  29  30  38  39  40  41  42  43  44  45 0
 3-21G
 ****


