%nproc=1
%NoSave
%Mem=1900MB
#P OB98/GEN NMR

erre ene a

0 1
  C      -21.783     -81.703    -139.268
  O      -22.033     -80.457    -138.640
  P      -20.928     -79.304    -138.804
  C      -18.687     -78.724    -137.616
  O      -19.849     -79.542    -137.640
  C      -18.338     -78.346    -136.180
  O      -19.320     -77.441    -135.634
  C      -18.304     -79.526    -135.216
  O      -17.083     -80.246    -135.286
  C      -18.424     -78.814    -133.878
  O      -17.143     -78.283    -133.487
  C      -19.398     -77.674    -134.207
  N      -22.550     -78.473    -130.331
  C      -21.256     -77.988    -130.332
  N      -20.708     -77.737    -129.124
  N      -20.565     -77.767    -131.418
  C      -21.240     -78.071    -132.555
  C      -22.523     -78.555    -132.680
  C      -23.272     -78.806    -131.469
  O      -24.400     -79.284    -131.401
  N      -22.863     -78.732    -133.995
  C      -21.794     -78.356    -134.666
  N      -20.766     -77.988    -133.836
  O      -21.697     -77.984    -138.326
  O      -20.374     -79.164    -140.181
  H      -17.301     -77.732    -132.694
  H      -21.221     -77.190    -138.635
  H      -23.039     -78.631    -129.465
  H      -21.711     -78.351    -135.746
  H      -19.118     -76.742    -133.708
  H      -18.753     -79.477    -133.073
  H      -21.165     -77.947    -128.249
  H      -19.171     -80.182    -135.358
  H      -19.740     -77.441    -129.092
  H      -17.369     -77.830    -136.190
  H      -18.872     -77.818    -138.198
  H      -17.855     -79.265    -138.078
  P      -17.157     -81.823    -134.995
  C      -17.548     -83.187    -132.818
  O      -17.150     -81.960    -133.399
  O      -15.706     -82.338    -135.432
  O      -18.254     -82.534    -135.714
  H      -15.744     -83.276    -135.696
  H      -17.234     -83.197    -131.771
  H      -17.082     -84.034    -133.330
  H      -18.636     -83.283    -132.861
  H      -22.598     -82.369    -139.075
  H      -20.879     -82.123    -138.880
  H      -21.684     -81.557    -140.323

 3  4  5  6  7  8  9  10  11  12  23  26  30  31 0
 6-311+G(2d,p)
 ****
 33  35  36  37  38 0
 6-311+G(2d,p)
 ****
 1  2  13  14  15  16  17  18  19  20  21  22  24  25 0
 3-21G
 ****
 27  28  29  32  34  39  40  41  42  43  44  45  46  47  48  49 0
 3-21G
 ****


