%nproc=1
%NoSave
%Mem=1900MB
#P OB98/GEN NMR

erre ene a

0 1
  C     -892.920    -889.340    -898.110
  O     -893.200    -890.210    -899.200
  H     -891.990    -889.640    -897.620
  H     -892.810    -888.330    -898.500
  H     -893.750    -889.370    -897.390
  P     -893.360    -891.770    -898.850
  C     -895.960    -891.600    -898.770
  O     -894.760    -891.880    -898.060
  C     -896.950    -892.740    -898.510
  O     -896.380    -894.000    -898.910
  C     -897.350    -892.890    -897.050
  O     -898.370    -891.970    -896.660
  C     -897.860    -894.320    -897.060
  O     -899.180    -894.380    -897.620
  C     -896.850    -895.010    -897.970
  N     -894.660    -899.330    -896.290
  C     -895.780    -899.110    -897.010
  N     -896.280    -897.930    -897.440
  C     -895.500    -896.910    -897.060
  C     -894.340    -896.980    -896.310
  C     -893.920    -898.260    -895.920
  N     -892.800    -898.480    -895.140
  N     -893.820    -895.720    -896.090
  C     -894.660    -894.900    -896.690
  N     -895.710    -895.580    -897.260
  O     -892.280    -892.030    -897.700
  O     -893.230    -892.710    -900.000
  H     -899.390    -895.320    -897.770
  H     -892.130    -892.980    -897.580
  H     -896.340    -900.000    -897.290
  H     -894.560    -893.830    -896.750
  H     -897.300    -895.830    -898.560
  H     -897.940    -894.750    -896.040
  H     -896.470    -892.820    -896.390
  H     -897.840    -892.560    -899.150
  H     -895.740    -891.540    -899.840
  H     -892.660    -899.430    -894.780
  H     -892.310    -897.700    -894.730
  H     -896.370    -890.650    -898.430
  P     -898.770    -891.960    -895.100
  C     -896.910    -890.240    -894.470
  O     -897.440    -891.570    -894.290
  O     -898.960    -893.500    -894.770
  O     -900.000    -891.150    -894.790
  H     -899.650    -893.630    -894.080
  H     -896.030    -890.123    -893.873
  H     -897.643    -889.520    -894.169
  H     -896.665    -890.090    -895.501

 6  7  8  9  10  11  12  13  14  15  25  28  32  33  34  35 0
 6-311+G(2d,p)
 ****
 36  39  40 0
 6-311+G(2d,p)
 ****
 1  2  3  4  5  16  17  18  19  20  21  22  23  24 0
 3-21G
 ****
 26  27  29  30  31  37  38  41  42  43  44  45  46  47 0
 3-21G
 ****
 48 0
 3-21G
 ****


