%nproc=1
%NoSave
%Mem=1900MB
#P OB98/GEN NMR

erre ene a

0 1
  C      335.152     569.783     410.753
  O      336.382     570.384     410.428
  P      336.994     571.591     411.288
  C      338.410     570.049     412.784
  O      337.336     570.963     412.742
  C      339.302     570.289     414.004
  O      338.535     570.060     415.227
  C      340.558     569.399     414.078
  O      341.577     570.208     414.695
  C      340.122     568.295     415.012
  O      341.218     567.582     415.574
  C      339.257     569.064     416.009
  N      338.348     568.203     416.745
  C      338.928     567.308     417.657
  O      340.161     567.253     417.756
  N      338.112     566.488     418.405
  C      336.839     566.475     418.169
  N      336.083     565.637     418.940
  C      336.202     567.306     417.122
  C      336.998     568.147     416.481
  O      336.149     572.828     411.333
  O      338.451     571.811     410.661
  H      340.855     566.814     416.094
  H      338.376     572.312     409.804
  H      335.140     567.215     416.934
  H      336.607     568.790     415.695
  H      339.878     569.609     416.724
  H      339.505     567.561     414.460
  H      340.885     569.036     413.097
  H      339.583     571.354     414.015
  H      336.561     565.103     419.650
  H      339.017     570.185     411.878
  H      335.073     565.625     418.899
  H      338.030     569.022     412.779
  P      343.134     569.888     414.450
  C      343.004     571.139     412.229
  O      343.388     569.939     412.875
  O      343.644     568.649     415.139
  O      343.891     571.198     414.991
  H      344.834     570.987     415.118
  H      343.465     571.179     411.231
  H      343.318     572.010     412.800
  H      341.908     571.148     412.111
  H      334.939     569.005     410.051
  H      334.375     570.518     410.717
  H      335.206     569.369     411.738

 3  4  5  6  7  8  9  10  11  12  13  23  27  28  29  30  32 0
 6-311+G(2d,p)
 ****
 34  35 0
 6-311+G(2d,p)
 ****
 1  2  14  15  16  17  18  19  20  21  22  24  25  26 0
 3-21G
 ****
 31  33  36  37  38  39  40  41  42  43  44  45  46 0
 3-21G
 ****


