%nproc=1
%NoSave
%Mem=1900MB
#P OB98/GEN NMR

erre ene a

0 1
  C      256.398     245.350      76.665
  O      257.262     246.390      77.075
  H      256.814     244.390      77.000
  H      256.329     245.334      75.574
  H      255.399     245.468      77.099
  P      256.758     247.903      76.968
  C      258.543     248.308      75.135
  O      257.169     248.406      75.496
  C      258.872     249.304      74.028
  O      258.089     248.959      72.845
  C      258.537     250.766      74.400
  O      259.498     251.627      73.783
  C      257.178     250.946      73.744
  O      256.857     252.299      73.554
  C      257.378     250.148      72.453
  N      256.105     249.853      71.805
  C      255.544     250.862      71.027
  O      256.059     251.965      70.865
  N      254.319     250.585      70.475
  C      253.566     249.473      70.723
  O      252.436     249.316      70.262
  C      254.188     248.460      71.598
  C      255.405     248.691      72.084
  O      257.185     248.821      78.075
  O      255.166     247.791      76.849
  H      255.946     252.379      73.220
  H      254.745     248.636      77.105
  H      253.902     251.304      69.898
  H      253.609     247.572      71.818
  H      255.879     247.975      72.748
  H      258.020     250.699      71.745
  H      256.396     250.499      74.362
  H      258.515     250.940      75.478
  H      259.929     249.205      73.757
  H      258.727     247.282      74.787
  H      259.165     248.496      76.020
  P      260.919     251.962      74.482
  C      259.915     254.031      75.626
  O      260.699     252.859      75.799
  O      261.941     252.498      73.540
  O      261.397     250.550      75.071
  H      262.340     250.421      74.854
  H      259.834     254.547      76.560
  H      258.938     253.759      75.283
  H      260.382     254.669      74.905

 6  7  8  9  10  11  12  13  14  15  16  26  31  32  33  34  35 0
 6-311+G(2d,p)
 ****
 36  37 0
 6-311+G(2d,p)
 ****
 1  2  3  4  5  17  18  19  20  21  22  23  24  25 0
 3-21G
 ****
 27  28  29  30  38  39  40  41  42  43  44  45 0
 3-21G
 ****


