%nproc=1
%NoSave
%Mem=1900MB
#P OB98/GEN NMR

erre ene a

0 1
  C     -375.495    -580.620       5.932
  O     -375.501    -581.988       6.290
  H     -376.378    -580.381       5.337
  H     -375.511    -580.016       6.848
  H     -374.586    -580.382       5.369
  P     -375.518    -583.050       5.091
  C     -373.665    -584.648       5.955
  O     -374.033    -583.669       4.989
  C     -372.299    -584.311       6.550
  O     -372.357    -582.967       7.088
  C     -371.828    -585.255       7.666
  O     -370.576    -585.852       7.322
  C     -371.612    -584.354       8.867
  O     -370.459    -584.678       9.625
  C     -371.508    -582.961       8.247
  N     -370.029    -580.214      12.275
  C     -369.322    -580.860      11.327
  N     -369.767    -581.484      10.218
  C     -371.106    -581.370      10.122
  C     -371.965    -580.718      11.001
  C     -371.375    -580.134      12.130
  N     -372.105    -579.519      13.124
  N     -373.277    -580.823      10.563
  C     -373.222    -581.566       9.477
  N     -371.928    -581.933       9.179
  O     -375.625    -582.126       3.785
  O     -376.618    -584.057       5.148
  H     -370.401    -584.026      10.344
  H     -376.322    -582.469       3.193
  H     -368.243    -580.888      11.484
  H     -374.066    -581.898       8.892
  H     -370.492    -582.733       7.923
  H     -372.493    -584.427       9.524
  H     -372.563    -586.044       7.888
  H     -371.564    -584.295       5.729
  H     -373.607    -585.632       5.470
  H     -371.614    -579.232      13.956
  H     -373.118    -579.554      13.079
  H     -374.431    -584.687       6.735
  P     -370.612    -587.369       6.790
  C     -368.504    -587.211       5.271
  O     -369.907    -587.395       5.347
  O     -372.165    -587.587       6.450
  O     -370.117    -588.368       7.780
  H     -372.400    -588.531       6.531
  H     -368.193    -587.255       4.248
  H     -368.013    -587.982       5.827
  H     -368.247    -586.257       5.681

 6  7  8  9  10  11  12  13  14  15  25  28  32  33  34  35 0
 6-311+G(2d,p)
 ****
 36  39  40 0
 6-311+G(2d,p)
 ****
 1  2  3  4  5  16  17  18  19  20  21  22  23  24 0
 3-21G
 ****
 26  27  29  30  31  37  38  41  42  43  44  45  46  47  48 0
 3-21G
 ****


