%nproc=1
%NoSave
%Mem=1900MB
#P OB98/GEN NMR

erre ene a

0 1
  C       44.876     -36.352      20.005
  O       44.588     -36.312      21.388
  H       44.287     -37.151      19.546
  H       45.937     -36.564      19.848
  H       44.612     -35.402      19.533
  P       45.324     -35.173      22.244
  C       46.996     -36.602      23.631
  O       45.778     -35.867      23.618
  C       47.071     -37.453      24.895
  O       48.327     -38.168      24.919
  C       47.031     -36.652      26.192
  O       45.714     -36.261      26.533
  C       47.644     -37.644      27.171
  O       46.670     -38.579      27.653
  C       48.682     -38.369      26.305
  N       52.789     -38.915      29.272
  C       51.614     -39.580      29.224
  N       50.574     -39.384      28.386
  C       50.843     -38.387      27.527
  C       51.989     -37.615      27.461
  C       53.001     -37.913      28.388
  N       54.181     -37.212      28.461
  N       51.872     -36.657      26.474
  C       50.680     -36.853      25.948
  N       50.027     -37.890      26.549
  O       44.114     -34.219      22.684
  O       46.394     -34.425      21.523
  H       46.111     -38.095      28.291
  H       44.035     -33.480      22.052
  H       51.493     -40.373      29.958
  H       50.248     -36.270      25.143
  H       48.686     -39.451      26.484
  H       48.063     -37.136      28.041
  H       47.688     -35.777      26.117
  H       46.260     -38.191      24.869
  H       47.840     -35.904      23.615
  H       47.038     -37.234      22.738
  H       54.853     -37.466      29.167
  H       54.305     -36.396      27.877
  P       45.486     -34.807      27.164
  C       44.766     -35.676      29.506
  O       44.406     -34.951      28.341
  O       44.693     -34.029      26.014
  O       46.737     -34.097      27.559
  H       45.299     -33.454      25.511
  H       43.944     -35.681      30.191
  H       45.612     -35.212      29.968
  H       45.013     -36.682      29.238

 6  7  8  9  10  11  12  13  14  15  25  28  32  33  34  35 0
 6-311+G(2d,p)
 ****
 36  37  40 0
 6-311+G(2d,p)
 ****
 1  2  3  4  5  16  17  18  19  20  21  22  23  24 0
 3-21G
 ****
 26  27  29  30  31  38  39 41  42  43  44  45  46  47  48 0
 3-21G
 ****


