%nproc=1
%NoSave
%Mem=1900MB
#P OB98/GEN NMR

erre ene a

0 1
  C      294.834    -181.261     172.323
  O      295.846    -180.932     173.250
  P      295.929    -179.522     173.992
  C      298.474    -179.316     173.494
  O      297.184    -178.712     173.398
  C      299.357    -179.039     172.269
  O      298.577    -179.209     171.065
  C      299.832    -177.584     172.275
  O      300.962    -177.209     173.039
  C      299.879    -177.179     170.810
  O      301.195    -177.252     170.262
  C      298.952    -178.185     170.129
  N      296.937    -175.492     166.338
  C      298.157    -176.137     166.390
  N      299.015    -175.866     165.384
  N      298.503    -176.946     167.357
  C      297.576    -177.043     168.340
  C      296.329    -176.465     168.391
  C      295.942    -175.604     167.297
  O      294.903    -174.946     167.251
  N      295.693    -176.725     169.575
  C      296.570    -177.428     170.266
  N      297.743    -177.611     169.574
  O      295.716    -179.526     175.474
  O      294.682    -178.739     173.330
  H      301.134    -177.080     169.307
  H      294.302    -178.159     174.015
  H      296.755    -174.815     165.606
  H      296.420    -177.793     171.274
  H      299.473    -178.694     169.310
  H      299.555    -176.138     170.688
  H      298.839    -175.135     164.706
  H      299.014    -176.990     172.708
  H      299.973    -176.181     165.481
  H      300.170    -179.769     172.199
  H      298.321    -180.393     173.628
  H      298.982    -178.951     174.392
  P      300.956    -176.353     174.388
  C      302.154    -174.447     173.177
  O      301.067    -174.802     174.007
  O      302.382    -176.657     175.057
  O      299.858    -176.689     175.345
  H      302.341    -176.478     176.017
  H      302.305    -173.366     173.232
  H      301.931    -174.720     172.140
  H      303.073    -174.951     173.492
  H      294.990    -182.256     171.963
  H      294.866    -180.575     171.502
  H      293.879    -181.201     172.801

 3  4  5  6  7  8  9  10  11  12  23  26  30  31 0
 6-311+G(2d,p)
 ****
 33  35  36  37  38 0
 6-311+G(2d,p)
 ****
 1  2  13  14  15  16  17  18  19  20  21  22  24  25 0
 3-21G
 ****
 27  28  29  32  34  39  40  41  42  43  44  45  46  47  48  49 0
 3-21G
 ****


