%nproc=1
%NoSave
%Mem=1900MB
#P OB98/GEN NMR

erre ene a

0 1
  C       53.747     -27.784      25.894
  O       54.476     -26.750      25.211
  P       53.871     -26.132      23.857
  C       53.963     -28.230      22.308
  O       53.160     -27.278      22.987
  C       54.041     -27.922      20.805
  O       54.639     -29.044      20.094
  C       52.685     -27.642      20.142
  O       52.916     -26.688      19.097
  C       52.328     -28.992      19.547
  O       51.355     -28.910      18.516
  C       53.709     -29.453      19.070
  N       53.809     -30.891      18.820
  C       53.288     -31.383      17.628
  O       52.693     -30.701      16.796
  N       53.445     -32.730      17.421
  C       54.019     -33.617      18.284
  O       54.101     -34.817      18.053
  C       54.525     -33.046      19.539
  C       54.399     -31.733      19.744
  O       55.196     -25.834      23.005
  O       53.075     -24.879      24.024
  H       51.003     -29.808      18.377
  H       55.140     -24.944      22.610
  H       53.086     -33.102      16.556
  H       54.992     -33.715      20.249
  H       54.777     -31.288      20.659
  H       53.982     -28.908      18.160
  H       51.927     -29.640      20.333
  H       51.935     -27.265      20.842
  H       54.717     -27.068      20.668
  H       53.532     -29.225      22.444
  H       54.967     -28.226      22.745
  P       52.328     -25.202      19.274
  C       49.793     -25.846      19.247
  O       50.893     -25.341      19.969
  O       51.966     -24.855      17.749
  O       53.279     -24.230      19.889
  H       51.507     -25.583      17.299
  H       50.082     -26.691      18.617
  H       49.370     -25.055      18.622
  H       49.031     -26.182      19.954
  H       54.285     -28.081      26.770
  H       53.630     -28.626      25.245
  H       52.783     -27.414      26.176

 3  4  5  6  7  8  9  10  11  12  13  23  28  29  30  31  32 0
 6-311+G(2d,p)
 ****
 33  34 0
 6-311+G(2d,p)
 ****
 1  2  14  15  16  17  18  19  20  21  22  24  25  26 0
 3-21G
 ****
 27  35  36  37  38  39  40  41  42  43  44  45 0
 3-21G
 ****


