%nproc=1
%NoSave
%Mem=1900MB
#P OB98/GEN NMR

erre ene a

0 1
  C      141.905     152.842     714.739
  O      140.763     153.672     714.703
  H      141.711     152.013     715.425
  H      142.772     153.403     715.100
  H      142.110     152.433     713.745
  P      140.856     154.977     713.772
  C      138.295     154.884     713.388
  O      139.396     155.645     713.874
  C      137.022     155.225     714.161
  O      137.080     154.680     715.489
  C      136.765     156.723     714.329
  O      136.141     157.257     713.168
  C      135.830     156.730     715.528
  O      134.488     156.435     715.094
  C      136.372     155.577     716.388
  N      136.816     156.394     721.448
  C      135.741     156.182     720.662
  N      135.689     156.029     719.318
  C      136.919     156.099     718.789
  C      138.113     156.318     719.456
  C      138.032     156.457     720.853
  N      139.143     156.685     721.653
  N      139.178     156.335     718.580
  C      138.634     156.079     717.402
  N      137.272     155.962     717.469
  O      141.385     154.756     712.396
  O      141.739     155.945     714.697
  H      134.531     155.610     714.579
  H      141.463     155.871     715.631
  H      134.782     156.134     721.179
  H      139.194     155.936     716.473
  H      135.557     155.002     716.845
  H      135.793     157.702     716.027
  H      137.695     157.266     714.585
  H      136.166     154.743     713.647
  H      138.503     153.806     713.479
  H      138.970     156.965     722.597
  H      140.022     156.855     721.192
  H      138.165     155.117     712.329
  P      136.606     158.653     712.542
  C      136.233     157.914     710.102
  O      135.800     158.767     711.153
  O      138.080     158.835     712.454
  O      135.895     159.754     713.461
  H      136.313     160.625     713.332
  H      135.626     158.079     709.236
  H      136.144     156.894     710.411
  H      137.255     158.127     709.868

 6  7  8  9  10  11  12  13  14  15  25  28  32  33  34  35 0
 6-311+G(2d,p)
 ****
 36  39  40 0
 6-311+G(2d,p)
 ****
 1  2  3  4  5  16  17  18  19  20  21  22  23  24 0
 3-21G
 ****
 26  27  29  30  31  37  38  41  42  43  44  45  46  47 0
 3-21G
 ****
 48 0
 3-21G
 ****


