%nproc=1
%NoSave
%Mem=1900MB
#P OB98/GEN NMR

erre ene a

0 1
  C      187.315    -202.017     -55.816
  O      187.608    -201.249     -54.670
  H      187.830    -202.978     -55.735
  H      187.677    -201.498     -56.707
  H      186.241    -202.202     -55.911
  P      186.653    -200.020     -54.303
  C      188.560    -198.666     -53.208
  O      187.557    -198.694     -54.217
  C      189.671    -197.672     -53.544
  O      190.517    -198.222     -54.577
  C      189.129    -196.343     -54.079
  O      188.805    -195.394     -53.076
  C      190.289    -195.855     -54.942
  O      191.229    -195.087     -54.169
  C      190.937    -197.153     -55.439
  N      191.626    -196.056     -60.386
  C      192.045    -195.348     -59.272
  N      192.693    -194.190     -59.519
  N      191.827    -195.742     -58.045
  C      191.080    -196.865     -57.958
  C      190.593    -197.640     -58.987
  C      190.902    -197.239     -60.343
  O      190.571    -197.839     -61.360
  N      189.839    -198.690     -58.515
  C      189.802    -198.494     -57.212
  N      190.605    -197.449     -56.820
  O      186.283    -200.283     -52.764
  O      185.411    -199.897     -55.132
  H      191.423    -195.585     -53.351
  H      185.390    -199.939     -52.581
  H      191.849    -195.719     -61.303
  H      189.250    -199.103     -56.506
  H      192.030    -197.102     -55.378
  H      189.932    -195.197     -55.741
  H      192.813    -193.797     -60.439
  H      188.267    -196.510     -54.731
  H      192.848    -193.550     -58.737
  H      190.302    -197.521     -52.660
  H      188.967    -199.675     -53.148
  H      188.117    -198.429     -52.237
  P      187.616    -194.348     -53.289
  C      187.926    -193.094     -51.004
  O      187.924    -193.050     -52.416
  O      186.391    -195.031     -52.519
  O      187.280    -194.038     -54.710
  H      185.806    -195.495     -53.145
  H      188.154    -192.123     -50.617
  H      188.664    -193.793     -50.670
  H      186.962    -193.399     -50.655

 6  7  8  9  10  11  12  13  14  15  26  29  33  34 0
 6-311+G(2d,p)
 ****
 36  38  39  40  41 0
 6-311+G(2d,p)
 ****
 1  2  3  4  5  16  17  18  19  20  21  22  23  24  25 0
 3-21G
 ****
 27  28  30  31  32  35  37  42  43  44  45  46  47 0
 3-21G
 ****
 48  49 0
 3-21G
 ****


