%nproc=1
%NoSave
%Mem=1900MB
#P OB98/GEN NMR

erre ene a

0 1
  C      337.573    -273.505    -222.712
  O      337.249    -274.227    -221.528
  P      335.967    -273.765    -220.684
  C      337.094    -273.197    -218.419
  O      336.277    -274.104    -219.143
  C      337.450    -273.754    -217.040
  O      336.223    -273.964    -216.285
  C      338.198    -275.089    -217.064
  O      339.088    -275.100    -215.942
  C      337.098    -276.104    -216.835
  O      337.601    -277.354    -216.360
  C      336.222    -275.340    -215.846
  N      332.570    -277.307    -212.858
  C      333.816    -276.871    -212.581
  N      334.732    -276.357    -213.429
  C      334.244    -276.322    -214.687
  C      333.007    -276.765    -215.124
  C      332.141    -277.279    -214.142
  N      330.861    -277.712    -214.418
  N      332.878    -276.591    -216.483
  C      334.025    -276.051    -216.865
  N      334.869    -275.850    -215.810
  O      334.870    -274.855    -221.091
  O      335.489    -272.380    -220.958
  H      338.142    -277.752    -217.065
  H      334.165    -274.436    -221.627
  H      334.119    -276.936    -211.537
  H      334.283    -275.794    -217.880
  H      336.624    -275.372    -214.828
  H      336.567    -276.300    -217.776
  H      338.756    -275.271    -217.992
  H      338.035    -272.996    -216.501
  H      336.547    -272.258    -218.285
  H      330.259    -277.934    -213.644
  H      330.468    -277.517    -215.332
  H      338.006    -272.989    -218.987
  P      340.635    -275.409    -216.238
  C      340.772    -276.860    -214.096
  O      341.309    -275.779    -214.838
  O      341.240    -273.963    -216.583
  O      340.858    -276.379    -217.353
  H      342.006    -274.059    -217.175
  H      341.582    -277.357    -213.556
  H      340.275    -277.593    -214.739
  H      340.050    -276.473    -213.373
  H      338.447    -273.929    -223.161
  H      337.760    -272.481    -222.465
  H      336.755    -273.562    -223.400

 3  4  5  6  7  8  9  10  11  12  22  25  29  30  31  32 0
 6-311+G(2d,p)
 ****
 33  36  37 0
 6-311+G(2d,p)
 ****
 1  2  13  14  15  16  17  18  19  20  21  23  24  26 0
 3-21G
 ****
 27  28  34  35  38  39  40  41  42  43  44  45  46  47  48 0
 3-21G
 ****


