%nproc=1
%NoSave
%Mem=1900MB
#P OB98/GEN NMR

erre ene a

0 1
  C       -7.950     273.250     308.602
  O       -7.697     273.973     307.395
  P       -6.789     275.290     307.538
  C       -8.532     277.089     306.883
  O       -7.754     276.515     307.922
  C       -9.240     278.365     307.351
  O       -9.990     278.980     306.261
  C      -10.227     278.137     308.502
  O      -10.182     279.309     309.329
  C      -11.568     278.090     307.787
  O      -12.649     278.310     308.685
  C      -11.342     279.175     306.736
  N      -15.455     281.335     304.763
  C      -14.807     281.580     305.956
  N      -15.300     282.583     306.716
  N      -13.770     280.903     306.373
  C      -13.364     279.954     305.488
  C      -13.908     279.631     304.268
  C      -15.079     280.366     303.837
  O      -15.686     280.195     302.788
  N      -13.194     278.630     303.651
  C      -12.262     278.316     304.535
  N      -12.286     279.122     305.635
  O       -6.352     275.600     306.032
  O       -5.605     275.107     308.435
  H      -13.481     278.183     308.179
  H       -5.442     275.282     305.872
  H      -16.262     281.878     304.499
  H      -11.532     277.533     304.413
  H      -11.417     280.183     307.159
  H      -11.707     277.111     307.316
  H      -16.066     283.177     306.438
  H      -10.034     277.242     309.097
  H      -14.822     282.808     307.578
  H       -8.472     279.086     307.660
  H       -9.286     276.372     306.543
  H       -7.888     277.287     306.019
  P       -9.595     279.154     310.807
  C      -11.898     278.591     311.850
  O      -10.571     278.169     311.608
  O       -9.893     280.587     311.466
  O       -8.140     278.826     310.874
  H       -9.142     280.845     312.036
  H      -12.536     277.707     311.954
  H      -12.284     279.207     311.034
  H      -11.937     279.167     312.778
  H       -8.561     272.398     308.386
  H       -8.457     273.885     309.299
  H       -7.022     272.926     309.025

 3  4  5  6  7  8  9  10  11  12  23  26  30  31 0
 6-311+G(2d,p)
 ****
 33  35  36  37  38 0
 6-311+G(2d,p)
 ****
 1  2  13  14  15  16  17  18  19  20  21  22  24  25 0
 3-21G
 ****
 27  28  29  32  34  39  40  41  42  43  44  45  46  47  48  49 0
 3-21G
 ****


