%nproc=1
%NoSave
%Mem=1900MB
#P OB98/GEN NMR

erre ene a

0 1
  C     1043.819    -329.323     -12.200
  O     1044.964    -330.100     -11.911
  P     1045.727    -329.928     -10.518
  C     1047.960    -329.382     -11.667
  O     1046.979    -328.948     -10.740
  C     1049.168    -328.435     -11.656
  O     1048.804    -327.138     -12.171
  C     1049.727    -328.158     -10.271
  O     1050.441    -329.265      -9.750
  C     1050.575    -326.924     -10.535
  O     1051.841    -327.277     -11.109
  C     1049.706    -326.176     -11.569
  N     1048.986    -325.049     -10.995
  C     1049.761    -324.038     -10.429
  O     1050.997    -324.160     -10.375
  N     1049.128    -322.923      -9.942
  C     1047.842    -322.883      -9.900
  N     1047.278    -321.717      -9.475
  C     1046.978    -323.994     -10.339
  C     1047.615    -325.034     -10.886
  O     1046.057    -331.213      -9.812
  O     1044.726    -329.041      -9.633
  H     1044.599    -329.474      -8.772
  H     1052.267    -326.437     -11.392
  H     1045.907    -323.935     -10.227
  H     1047.057    -325.899     -11.255
  H     1050.336    -325.811     -12.388
  H     1050.782    -326.347      -9.610
  H     1048.910    -327.909      -9.578
  H     1049.940    -328.858     -12.309
  H     1047.887    -320.971      -9.195
  H     1047.529    -329.402     -12.668
  H     1046.307    -321.464      -9.709
  H     1048.277    -330.394     -11.395
  P     1050.708    -329.293      -8.171
  C     1053.272    -329.558      -8.406
  O     1052.198    -328.777      -7.916
  O     1050.782    -330.870      -7.831
  O     1049.638    -328.617      -7.351
  H     1050.381    -331.026      -6.959
  H     1054.162    -328.922      -8.471
  H     1053.043    -329.977      -9.390
  H     1053.474    -330.383      -7.713
  H     1043.451    -329.578     -13.172
  H     1044.077    -328.285     -12.178
  H     1043.062    -329.518     -11.469

 3  4  5  6  7  8  9  10  11  12  13  24  27  28  29  30  32 0
 6-311+G(2d,p)
 ****
 34  35 0
 6-311+G(2d,p)
 ****
 1  2  14  15  16  17  18  19  20  21  22  23  25  26 0
 3-21G
 ****
 31  33  36  37  38  39  40  41  42  43  44  45  46 0
 3-21G
 ****


