%nproc=1
%NoSave
%Mem=1900MB
#P OB98/GEN NMR

erre ene a

0 1
  C      127.812      76.652      13.561
  O      128.759      76.586      12.514
  H      127.251      75.715      13.586
  H      127.116      77.478      13.390
  H      128.321      76.788      14.519
  P      129.615      77.918      12.237
  C      127.972      78.734      10.383
  O      128.523      78.954      11.672
  C      127.105      79.920       9.976
  O      125.954      80.031      10.843
  C      127.804      81.274      10.062
  O      128.684      81.523       8.980
  C      126.596      82.194      10.031
  O      126.071      82.256       8.692
  C      125.633      81.443      10.975
  N      125.753      81.870      12.373
  C      124.618      82.453      12.950
  O      123.584      82.594      12.300
  N      124.694      82.898      14.247
  C      125.794      82.757      14.919
  N      125.808      83.219      16.198
  C      127.006      82.137      14.355
  C      126.918      81.721      13.094
  O      130.459      77.550      10.928
  O      130.429      78.423      13.379
  H      125.135      82.518       8.772
  H      130.914      78.357      10.584
  H      127.905      82.051      14.950
  H      127.769      81.254      12.612
  H      124.591      81.573      10.659
  H      126.823      83.216      10.331
  H      128.320      81.400      11.021
  H      126.733      79.730       8.962
  H      124.980      83.693      16.536
  H      127.367      77.821      10.419
  H      126.655      83.290      16.747
  H      128.772      78.601       9.649
  P      130.153      82.065       9.335
  C      129.329      84.467       8.758
  O      130.003      83.622       9.683
  O      130.892      82.072       7.919
  O      130.895      81.253      10.351
  H      131.840      81.857       8.017
  H      129.314      85.468       9.135
  H      128.325      84.121       8.625
  H      129.841      84.447       7.819

 6  7  8  9  10  11  12  13  14  15  16  26  30  31  32  33  35 0
 6-311+G(2d,p)
 ****
 37  38 0
 6-311+G(2d,p)
 ****
 1  2  3  4  5  17  18  19  20  21  22  23  24  25 0
 3-21G
 ****
 27  28  29  34  36  39  40  41  42  43  44  45  46 0
 3-21G
 ****


