%nproc=1
%NoSave
%Mem=1900MB
#P OB98/GEN NMR

erre ene a

0 1
  C      845.324    -325.729    -781.511
  O      845.159    -324.396    -781.974
  P      846.165    -323.254    -781.497
  C      846.828    -321.862    -783.588
  O      845.969    -322.003    -782.484
  C      846.717    -320.442    -784.201
  O      845.441    -320.364    -784.897
  C      846.694    -319.319    -783.185
  O      847.003    -318.095    -783.857
  C      845.241    -319.293    -782.752
  O      844.864    -318.056    -782.155
  C      844.498    -319.662    -784.074
  N      843.309    -320.499    -783.812
  C      842.154    -319.831    -783.401
  O      842.071    -318.606    -783.327
  N      841.108    -320.635    -782.998
  C      841.153    -322.002    -782.935
  O      840.352    -322.678    -782.289
  C      842.296    -322.646    -783.594
  C      843.322    -321.866    -783.975
  O      847.604    -323.837    -781.910
  O      846.108    -322.922    -780.043
  H      844.808    -317.393    -782.893
  H      848.018    -324.284    -781.147
  H      840.337    -320.155    -782.570
  H      842.289    -323.718    -783.708
  H      844.212    -322.322    -784.420
  H      844.169    -318.749    -784.606
  H      845.082    -320.092    -782.001
  H      847.361    -319.458    -782.331
  H      847.515    -320.299    -784.932
  H      846.582    -322.628    -784.335
  H      847.864    -322.033    -783.292
  P      848.394    -317.367    -783.501
  C      848.658    -316.872    -785.999
  O      848.681    -316.333    -784.698
  O      849.525    -318.251    -783.133
  O      847.973    -316.385    -782.293
  H      848.765    -316.113    -781.811
  H      848.344    -316.089    -786.714
  H      847.956    -317.702    -786.089
  H      849.656    -317.215    -786.277
  H      844.562    -326.350    -781.934
  H      845.248    -325.748    -780.444
  H      846.286    -326.093    -781.807

 3  4  5  6  7  8  9  10  11  12  13  23  28  29  30  31  32 0
 6-311+G(2d,p)
 ****
 33  34 0
 6-311+G(2d,p)
 ****
 1  2  14  15  16  17  18  19  20  21  22  24  25  26  27 0
 3-21G
 ****
 35  36  37  38  39  40  41  42  43  44  45 0
 3-21G
 ****


