%nproc=1
%NoSave
%Mem=1900MB
#P OB98/GEN NMR

erre ene a

0 1
  C      -71.101     379.174     -45.213
  O      -70.478     378.600     -46.351
  P      -69.857     377.118     -46.313
  C      -71.483     376.576     -48.262
  O      -70.969     376.175     -47.002
  C      -71.003     375.625     -49.365
  O      -71.292     374.264     -48.951
  C      -71.665     375.849     -50.731
  O      -70.683     375.568     -51.733
  C      -72.766     374.801     -50.747
  O      -73.190     374.477     -52.064
  C      -72.080     373.652     -49.996
  N      -73.037     372.693     -49.440
  C      -73.429     371.624     -50.245
  O      -72.997     371.504     -51.396
  N      -74.306     370.695     -49.735
  C      -74.817     370.871     -48.552
  N      -75.628     369.898     -48.068
  C      -74.517     372.049     -47.713
  C      -73.613     372.896     -48.203
  O      -69.402     376.660     -44.971
  O      -68.713     377.137     -47.427
  H      -72.402     374.206     -52.584
  H      -67.850     377.486     -47.082
  H      -74.991     372.168     -46.743
  H      -73.314     373.772     -47.648
  H      -71.377     373.129     -50.659
  H      -73.634     375.174     -50.191
  H      -72.031     376.871     -50.858
  H      -69.912     375.718     -49.444
  H      -75.679     369.034     -48.595
  H      -71.110     377.587     -48.482
  H      -75.797     369.805     -47.070
  H      -72.578     376.610     -48.222
  P      -70.667     376.471     -53.061
  C      -69.363     378.445     -51.997
  O      -70.554     378.005     -52.615
  O      -72.201     376.371     -53.538
  O      -69.764     376.015     -54.166
  H      -72.248     376.519     -54.502
  H      -69.461     379.513     -51.771
  H      -68.508     378.308     -52.661
  H      -69.198     377.907     -51.057
  H      -71.443     380.159     -45.452
  H      -70.397     379.226     -44.409
  H      -71.933     378.569     -44.919

 3  4  5  6  7  8  9  10  11  12  13  23  27  28  29  30  32 0
 6-311+G(2d,p)
 ****
 34  35 0
 6-311+G(2d,p)
 ****
 1  2  14  15  16  17  18  19  20  21  22  24  25  26 0
 3-21G
 ****
 31  33  36  37  38  39  40  41  42  43  44  45  46 0
 3-21G
 ****


