%nproc=1
%NoSave
%Mem=1900MB
#P OB98/GEN NMR

erre ene a

0 1
  C      282.124     148.780     -27.407
  O      282.031     150.007     -26.675
  P      280.559     150.567     -26.357
  C      278.510     151.428     -27.716
  O      279.854     150.959     -27.743
  C      278.238     152.314     -28.936
  O      279.123     153.449     -28.966
  C      278.458     151.597     -30.256
  O      277.364     150.750     -30.557
  C      278.619     152.764     -31.229
  O      277.356     153.169     -31.783
  C      279.213     153.880     -30.336
  N      280.576     154.220     -30.695
  C      280.737     155.385     -31.453
  O      279.754     156.049     -31.791
  N      282.004     155.759     -31.819
  C      283.019     155.018     -31.487
  N      284.248     155.442     -31.891
  C      282.889     153.767     -30.713
  C      281.653     153.432     -30.356
  O      280.847     151.981     -25.674
  O      279.753     149.675     -25.465
  H      277.562     153.894     -32.412
  H      280.161     152.181     -25.007
  H      283.763     153.180     -30.469
  H      281.463     152.525     -29.786
  H      278.605     154.793     -30.412
  H      279.262     152.498     -32.070
  H      279.392     151.017     -30.219
  H      277.202     152.678     -28.875
  H      284.300     156.300     -32.420
  H      278.322     151.989     -26.800
  H      285.104     154.937     -31.691
  H      277.835     150.563     -27.699
  P      277.316     149.315     -29.849
  C      278.540     147.084     -30.217
  O      278.332     148.404     -30.691
  O      275.897     148.750     -30.333
  O      277.460     149.274     -28.367
  H      275.700     147.903     -29.891
  H      279.076     146.514     -30.983
  H      277.582     146.593     -30.023
  H      279.143     147.107     -29.309
  H      283.154     148.526     -27.547
  H      281.652     148.897     -28.360
  H      281.635     148.001     -26.860

 3  4  5  6  7  8  9  10  11  12  13  21  23  27  28  29  30  32 0
 6-311+G(2d,p)
 ****
 34  35 0
 6-311+G(2d,p)
 ****
 1  2  14  15  16  17  18  19  20  22  24  25  26 0
 3-21G
 ****
 31  33  36  37  38  39  40  41  42  43  44  45  46 0
 3-21G
 ****


