%nproc=1
%NoSave
%Mem=1900MB
#P OB98/GEN NMR

erre ene a

0 1
  C     -405.165     304.847     165.420
  O     -405.130     305.305     164.085
  H     -405.918     305.421     165.969
  H     -404.190     305.007     165.890
  H     -405.428     303.788     165.471
  P     -404.386     304.416     162.980
  C     -406.118     304.648     161.078
  O     -404.817     304.982     161.542
  C     -406.549     305.568     159.930
  O     -406.853     306.885     160.452
  C     -405.405     305.740     158.920
  O     -405.884     305.998     157.605
  C     -404.687     306.979     159.437
  O     -403.905     307.628     158.436
  C     -405.867     307.807     159.954
  N     -405.123     312.686     161.231
  C     -405.371     312.141     159.989
  N     -405.408     313.000     158.946
  N     -405.554     310.858     159.783
  C     -405.416     310.108     160.908
  C     -405.145     310.535     162.189
  C     -404.986     311.956     162.408
  O     -404.743     312.497     163.483
  N     -405.059     309.477     163.062
  C     -405.269     308.416     162.312
  N     -405.508     308.746     160.996
  O     -405.157     303.011     163.042
  O     -402.911     304.240     163.173
  H     -403.501     308.416     158.846
  H     -404.582     302.291     162.727
  H     -405.007     313.681     161.337
  H     -405.269     307.388     162.667
  H     -406.319     308.379     159.134
  H     -403.999     306.668     160.234
  H     -405.103     313.954     159.026
  H     -404.747     304.871     158.897
  H     -405.294     312.595     158.012
  H     -407.471     305.189     159.465
  H     -406.805     304.758     161.927
  H     -406.152     303.600     160.766
  P     -405.567     304.905     156.472
  C     -408.016     304.962     155.527
  O     -406.626     305.099     155.285
  O     -405.997     303.521     157.162
  O     -404.143     304.892     156.027
  H     -405.204     303.016     157.421
  H     -408.554     305.127     154.617
  H     -408.323     305.680     156.259
  H     -408.220     303.975     155.888

 6  7  8  9  10  11  12  13  14  15  26  29  33  34 0
 6-311+G(2d,p)
 ****
 36  38  39  40  41 0
 6-311+G(2d,p)
 ****
 1  2  3  4  5  16  17  18  19  20  21  22  23  24  25 0
 3-21G
 ****
 27  28  30  31  32  35  37  42  43  44  45  46  47 0
 3-21G
 ****
 48  49 0
 3-21G
 ****


