%nproc=1
%NoSave
%Mem=1900MB
#P OB98/GEN NMR

erre ene a

0 1
  C      -44.988     103.121      77.046
  O      -43.589     102.948      77.132
  H      -45.311     102.877      76.030
  H      -45.258     104.158      77.262
  H      -45.493     102.452      77.749
  P      -42.900     103.367      78.523
  C      -40.828     102.396      79.775
  O      -41.564     102.474      78.563
  C      -40.013     101.108      79.809
  O      -40.874      99.968      80.035
  C      -39.266     100.797      78.515
  O      -38.085     101.560      78.351
  C      -38.963      99.326      78.738
  O      -37.895      99.193      79.694
  C      -40.303      98.835      79.325
  N      -41.233      98.349      78.301
  C      -41.942      97.179      78.601
  O      -41.776      96.602      79.673
  N      -42.800      96.668      77.657
  C      -42.956      97.279      76.524
  N      -43.818      96.723      75.629
  C      -42.241      98.518      76.172
  C      -41.407      98.993      77.094
  O      -43.826     102.662      79.622
  O      -42.688     104.827      78.735
  H      -37.782      98.237      79.854
  H      -43.405     102.735      80.514
  H      -42.395      98.985      75.210
  H      -40.846      99.902      76.907
  H      -40.142      98.035      80.058
  H      -38.644      98.808      77.833
  H      -39.919     100.894      77.640
  H      -39.325     101.171      80.661
  H      -44.248      95.841      75.877
  H      -41.537     102.416      80.610
  H      -43.893      97.038      74.671
  H      -40.154     103.254      79.861
  P      -37.785     102.146      76.885
  C      -36.548     104.231      75.936
  O      -36.939     103.492      77.086
  O      -39.215     102.676      76.405
  O      -37.200     101.161      75.922
  H      -39.324     102.561      75.441
  H      -35.995     105.095      76.239
  H      -37.419     104.537      75.395
  H      -35.936     103.617      75.309

 6  7  8  9  10  11  12  13  14  15  16  26  30  31  32  33  35 0
 6-311+G(2d,p)
 ****
 37  38 0
 6-311+G(2d,p)
 ****
 1  2  3  4  5  17  18  19  20  21  22  23  24  25 0
 3-21G
 ****
 27  28  29  34  36  39  40  41  42  43  44  45  46 0
 3-21G
 ****


