%nproc=1
%NoSave
%Mem=1900MB
#P OB98/GEN NMR

erre ene a

0 1
  C       62.072    -278.213    -118.375
  O       61.734    -277.794    -119.683
  H       62.712    -277.469    -117.895
  H       61.154    -278.318    -117.792
  H       62.582    -279.180    -118.407
  P       62.951    -277.609    -120.714
  C       62.532    -280.101    -121.307
  O       63.488    -279.087    -121.038
  C       63.236    -281.413    -121.634
  O       62.330    -282.522    -121.465
  C       63.755    -281.521    -123.065
  O       64.986    -280.833    -123.233
  C       63.937    -283.026    -123.187
  O       65.162    -283.423    -122.543
  C       62.731    -283.558    -122.399
  N       60.118    -287.386    -124.568
  C       61.168    -287.378    -123.716
  N       61.794    -286.320    -123.165
  C       61.219    -285.172    -123.563
  C       60.135    -285.020    -124.408
  C       59.574    -286.196    -124.927
  N       58.542    -286.188    -125.853
  N       59.841    -283.682    -124.591
  C       60.750    -283.040    -123.886
  N       61.600    -283.897    -123.240
  O       64.102    -276.976    -119.794
  O       62.655    -276.753    -121.898
  H       65.882    -282.949    -123.000
  H       64.104    -276.007    -119.907
  H       61.558    -288.353    -123.445
  H       60.830    -281.962    -123.816
  H       62.981    -284.445    -121.808
  H       63.990    -283.368    -124.226
  H       63.004    -281.190    -123.789
  H       64.055    -281.546    -120.914
  H       61.914    -279.800    -122.160
  H       58.548    -286.991    -126.478
  H       58.366    -285.285    -126.275
  H       61.893    -280.221    -120.428
  P       65.450    -280.487    -124.730
  C       64.526    -278.101    -124.351
  O       64.558    -279.236    -125.205
  O       64.865    -281.715    -125.575
  O       66.920    -280.348    -124.925
  H       65.588    -282.150    -126.069
  H       63.901    -277.347    -124.783
  H       65.517    -277.716    -124.232
  H       64.136    -278.384    -123.396

 6  7  8  9  10  11  12  13  14  15  25  28  32  33  34  35 0
 6-311+G(2d,p)
 ****
 36  39  40 0
 6-311+G(2d,p)
 ****
 1  2  3  4  5  16  17  18  19  20  21  22  23  24 0
 3-21G
 ****
 26  27  29  30  31  37  38  41  42  43  44  45  46  47  48 0
 3-21G
 ****


