%nproc=1
%NoSave
%Mem=1900MB
#P OB98/GEN NMR

erre ene a

0 1
  C     -132.540     975.332    -364.708
  O     -131.869     975.353    -363.458
  H     -133.078     976.273    -364.824
  H     -133.255     974.505    -364.732
  H     -131.824     975.232    -365.530
  P     -130.873     974.148    -363.097
  C     -131.307     973.951    -360.562
  O     -130.400     974.367    -361.579
  C     -130.583     973.921    -359.213
  O     -129.470     973.000    -359.264
  C     -129.986     975.263    -358.805
  O     -130.989     976.140    -358.323
  C     -128.972     974.829    -357.752
  O     -129.619     974.593    -356.484
  C     -128.452     973.501    -358.355
  N     -127.169     973.663    -359.047
  C     -126.078     974.026    -358.264
  O     -126.169     974.227    -357.044
  N     -124.890     974.161    -358.919
  C     -124.703     974.086    -360.273
  O     -123.629     974.316    -360.817
  C     -125.893     973.742    -361.056
  C     -127.051     973.538    -360.413
  O     -129.770     973.910    -364.071
  O     -131.842     972.876    -362.990
  H     -128.941     974.200    -355.905
  H     -131.737     972.319    -363.781
  H     -124.085     974.431    -358.359
  H     -125.781     973.654    -362.137
  H     -127.939     973.284    -360.989
  H     -128.334     972.744    -357.574
  H     -128.195     975.572    -357.585
  H     -129.450     975.719    -359.641
  H     -131.285     973.555    -358.445
  H     -131.669     972.949    -360.800
  H     -132.160     974.648    -360.527
  P     -130.938     977.695    -358.706
  C     -132.060     978.318    -356.469
  O     -132.100     978.446    -357.895
  O     -130.887     977.994    -360.173
  O     -129.605     978.224    -357.983
  H     -128.979     978.566    -358.662
  H     -132.878     978.857    -356.039
  H     -131.138     978.717    -356.101
  H     -132.134     977.285    -356.201

 6  7  8  9  10  11  12  13  14  15  16  26  31  32  33  34  35 0
 6-311+G(2d,p)
 ****
 36  37 0
 6-311+G(2d,p)
 ****
 1  2  3  4  5  17  18  19  20  21  22  23  24  25 0
 3-21G
 ****
 27  28  29  30  38  39  40  41  42  43  44  45 0
 3-21G
 ****


