%nproc=1
%NoSave
%Mem=1900MB
#P OB98/GEN NMR

erre ene a

0 1
  C      195.110      39.821    -893.860
  O      195.741      41.074    -893.690
  H      195.337      39.447    -894.860
  H      194.026      39.937    -893.770
  H      195.477      39.102    -893.120
  P      195.681      41.721    -892.210
  C      197.293      43.755    -891.790
  O      196.110      43.261    -892.400
  C      197.741      45.047    -892.470
  O      198.034      44.759    -893.880
  C      196.700      46.165    -892.440
  O      197.375      47.424    -892.320
  C      196.051      46.085    -893.820
  O      195.441      47.308    -894.200
  C      197.250      45.655    -894.680
  N      196.844      45.010    -895.940
  C      196.102      45.799    -896.830
  O      195.832      46.968    -896.550
  N      195.660      45.230    -898.010
  C      195.877      43.973    -898.230
  N      195.390      43.462    -899.400
  C      196.603      43.099    -897.300
  C      197.058      43.672    -896.190
  O      196.955      41.055    -891.510
  O      194.392      41.494    -891.500
  H      194.806      47.581    -893.510
  H      197.752      41.053    -892.080
  H      196.752      42.033    -897.520
  H      197.622      43.104    -895.450
  H      197.884      46.515    -894.940
  H      195.275      45.295    -893.830
  H      195.979      46.046    -891.630
  H      198.685      45.373    -892.020
  H      194.875      44.102    -900.000
  H      198.096      43.008    -891.860
  H      195.443      42.497    -899.650
  H      197.081      43.946    -890.730
  P      197.830      47.925    -890.860
  C      199.911      49.119    -889.900
  O      199.050      48.953    -891.020
  O      198.011      46.872    -889.830
  O      196.613      48.911    -890.450
  H      196.420      48.763    -889.500
  H      200.676      49.827    -890.140
  H      200.359      48.180    -889.653
  H      199.345      49.475    -889.065

 6  7  8  9  10  11  12  13  14  15  16  26  30  31  32  33  35 0
 6-311+G(2d,p)
 ****
 37  38 0
 6-311+G(2d,p)
 ****
 1  2  3  4  5  17  18  19  20  21  22  23  24  25 0
 3-21G
 ****
 27  28  29  34  36  39  40  41  42  43  44  45  46 0
 3-21G
 ****


