%nproc=1
%NoSave
%Mem=1900MB
#P OB98/GEN NMR

erre ene a

0 1
  C     -574.860    -225.620     168.254
  O     -574.297    -225.866     169.523
  H     -574.105    -225.149     167.621
  H     -575.708    -224.934     168.359
  H     -575.195    -226.545     167.773
  P     -574.995    -226.934     170.484
  C     -577.323    -227.305     171.547
  O     -576.534    -226.503     170.671
  C     -578.260    -226.449     172.405
  O     -579.057    -225.595     171.555
  C     -579.235    -227.293     173.232
  O     -578.725    -227.715     174.481
  C     -580.410    -226.335     173.410
  O     -580.240    -225.507     174.569
  C     -580.365    -225.482     172.135
  N     -585.327    -225.597     170.900
  C     -584.743    -225.271     172.111
  N     -585.589    -224.975     173.122
  N     -583.444    -225.258     172.301
  C     -582.733    -225.669     171.234
  C     -583.207    -226.039     169.985
  C     -584.640    -225.983     169.753
  O     -585.201    -226.241     168.702
  N     -582.185    -226.444     169.160
  C     -581.108    -226.398     169.927
  N     -581.387    -225.858     171.169
  O     -574.372    -226.604     171.929
  O     -574.773    -228.374     170.125
  H     -579.909    -226.072     175.299
  H     -574.318    -227.422     172.457
  H     -586.327    -225.569     170.802
  H     -580.113    -226.696     169.633
  H     -580.519    -224.423     172.357
  H     -581.342    -226.884     173.546
  H     -586.593    -225.053     173.053
  H     -579.584    -228.155     172.658
  H     -585.213    -224.919     174.072
  H     -577.658    -225.786     173.050
  H     -576.624    -227.852     172.184
  H     -577.895    -228.045     170.977
  P     -578.950    -229.218     174.991
  C     -580.994    -230.626     175.863
  O     -580.467    -229.375     175.467
  O     -578.120    -229.271     176.363
  O     -578.524    -230.289     174.039
  H     -577.248    -229.676     176.218
  H     -582.020    -230.509     176.142
  H     -580.438    -230.999     176.698
  H     -580.922    -231.317     175.049

 6  7  8  9  10  11  12  13  14  15  26  29  33  34 0
 6-311+G(2d,p)
 ****
 36  38  39  40  41 0
 6-311+G(2d,p)
 ****
 1  2  3  4  5  16  17  18  19  20  21  22  23  24  25 0
 3-21G
 ****
 27  28  30  31  32  35  37  42  43  44  45  46  47 0
 3-21G
 ****
 48  49 0
 3-21G
 ****


