%nproc=1
%NoSave
%Mem=1900MB
#P OB98/GEN NMR

erre ene a

0 1
  C     -444.051    -627.335     -21.976
  O     -444.192    -626.371     -23.002
  H     -443.017    -627.323     -21.622
  H     -444.286    -628.332     -22.364
  H     -444.714    -627.096     -21.138
  P     -445.661    -626.204     -23.626
  C     -444.981    -625.636     -26.080
  O     -445.501    -625.167     -24.843
  C     -443.812    -624.747     -26.527
  O     -444.352    -623.515     -27.087
  C     -442.870    -624.346     -25.377
  O     -441.543    -624.171     -25.918
  C     -443.428    -622.991     -24.978
  O     -442.492    -622.281     -24.205
  C     -443.744    -622.425     -26.359
  N     -443.975    -617.367     -25.763
  C     -442.928    -618.220     -25.846
  N     -442.952    -619.558     -26.011
  C     -444.218    -619.994     -26.126
  C     -445.383    -619.249     -26.061
  C     -445.229    -617.866     -25.862
  N     -446.289    -616.996     -25.752
  N     -446.492    -620.070     -26.195
  C     -446.001    -621.285     -26.348
  N     -444.633    -621.286     -26.315
  O     -446.437    -625.363     -22.508
  O     -446.367    -627.470     -23.969
  H     -442.776    -621.353     -24.067
  H     -446.900    -625.966     -21.897
  H     -441.946    -617.762     -25.765
  H     -446.581    -622.190     -26.469
  H     -442.842    -622.117     -26.905
  H     -444.335    -623.104     -24.379
  H     -442.839    -625.075     -24.562
  H     -443.267    -625.252     -27.332
  H     -445.778    -625.612     -26.824
  H     -444.633    -626.665     -25.959
  H     -446.093    -616.025     -25.582
  H     -447.232    -617.363     -25.788
  P     -440.436    -625.299     -25.645
  C     -438.337    -623.790     -25.989
  O     -439.064    -624.935     -26.396
  O     -440.986    -626.524     -26.526
  O     -440.285    -625.718     -24.217
  H     -440.945    -627.346     -26.000
  H     -437.456    -623.695     -26.589
  H     -438.059    -623.891     -24.961
  H     -438.946    -622.919     -26.110

 6  7  8  9  10  11  12  13  14  15  25  28  32  33  34  35 0
 6-311+G(2d,p)
 ****
 36  37  40 0
 6-311+G(2d,p)
 ****
 1  2  3  4  5  16  17  18  19  20  21  22  23  24 0
 3-21G
 ****
 26  27  29  30  31  38  39 41  42  43  44  45  46  47  48 0
 3-21G
 ****


