%nproc=1
%NoSave
%Mem=1900MB
#P OB98/GEN NMR

erre ene a

0 1
  C     -894.310     818.148    2062.012
  O     -895.280     817.701    2061.096
  H     -894.320     819.234    2062.043
  H     -893.330     817.813    2061.705
  H     -894.530     817.773    2063.024
  P     -895.570     816.113    2061.005
  C     -894.260     816.055    2058.743
  O     -894.420     815.495    2060.058
  C     -893.490     815.093    2057.840
  O     -894.320     813.928    2057.574
  C     -893.090     815.711    2056.501
  O     -891.780     815.234    2056.161
  C     -894.100     815.140    2055.513
  O     -893.590     815.105    2054.184
  C     -894.390     813.760    2056.129
  N     -895.710     813.255    2055.712
  C     -895.720     811.983    2055.120
  O     -894.650     811.359    2054.948
  N     -896.920     811.491    2054.660
  C     -897.990     812.232    2054.726
  N     -899.140     811.702    2054.218
  C     -897.990     813.595    2055.265
  C     -896.830     814.049    2055.745
  O     -896.890     816.009    2060.108
  O     -895.710     815.412    2062.329
  H     -892.850     814.479    2054.153
  H     -897.430     815.259    2060.367
  H     -898.900     814.176    2055.249
  H     -896.740     815.053    2056.161
  H     -893.620     813.027    2055.840
  H     -894.980     815.774    2055.518
  H     -893.070     816.814    2056.501
  H     -892.590     814.735    2058.406
  H     -899.070     810.754    2053.819
  H     -893.730     817.013    2058.808
  H     -900.000     812.193    2054.150
  H     -895.280     816.256    2058.328
  P     -890.520     816.171    2056.551
  C     -890.190     816.559    2053.999
  O     -890.210     817.131    2055.301
  O     -889.270     815.143    2056.574
  O     -890.670     816.841    2057.906
  H     -888.980     814.990    2057.488
  H     -889.971     817.319    2053.279
  H     -891.146     816.128    2053.784
  H     -889.438     815.799    2053.955

 6  7  8  9  10  11  12  13  14  15  16  26  30  31  32  33  35 0
 6-311+G(2d,p)
 ****
 37  38 0
 6-311+G(2d,p)
 ****
 1  2  3  4  5  17  18  19  20  21  22  23  24  25 0
 3-21G
 ****
 27  28  29  34  36  39  40  41  42  43  44  45  46 0
 3-21G
 ****


