%nproc=1
%NoSave
%Mem=1900MB
#P OB98/GEN NMR

erre ene a

0 1
  C      -48.072     -51.309       2.599
  O      -47.460     -52.299       1.797
  H      -49.157     -51.403       2.500
  H      -47.778     -50.313       2.260
  H      -47.804     -51.442       3.651
  P      -45.864     -52.448       1.836
  C      -46.234     -54.965       2.204
  O      -45.535     -53.975       1.464
  C      -45.821     -56.365       1.752
  O      -46.632     -56.744       0.610
  C      -44.350     -56.469       1.340
  O      -43.849     -57.736       1.767
  C      -44.404     -56.427      -0.175
  O      -43.289     -57.082      -0.776
  C      -45.740     -57.110      -0.461
  N      -46.459     -58.556      -5.246
  C      -45.942     -59.253      -4.172
  N      -45.530     -60.516      -4.409
  N      -45.834     -58.753      -2.969
  C      -46.298     -57.484      -2.872
  C      -46.830     -56.689      -3.858
  C      -46.931     -57.249      -5.190
  O      -47.368     -56.676      -6.181
  N      -47.161     -55.448      -3.372
  C      -46.826     -55.494      -2.096
  N      -46.288     -56.704      -1.746
  O      -45.206     -51.961       3.086
  O      -45.368     -51.641       0.548
  H      -42.493     -56.550      -0.561
  H      -45.046     -50.755       0.799
  H      -46.511     -58.986      -6.153
  H      -46.944     -54.684      -1.388
  H      -45.654     -58.203      -0.482
  H      -44.415     -55.384      -0.516
  H      -45.598     -60.973      -5.305
  H      -43.733     -55.666       1.753
  H      -45.168     -61.056      -3.631
  H      -46.055     -57.072       2.556
  H      -47.307     -54.825       2.036
  H      -46.023     -54.838       3.271
  P      -43.699     -58.018       3.338
  C      -45.279     -60.050       3.405
  O      -43.949     -59.581       3.593
  O      -44.457     -57.096       4.234
  O      -42.117     -57.878       3.572
  H      -41.961     -57.560       4.482
  H      -45.318     -61.101       3.604
  H      -45.583     -59.866       2.396
  H      -45.937     -59.536       4.074

 6  7  8  9  10  11  12  13  14  15  26  29  33  34 0
 6-311+G(2d,p)
 ****
 36  38  39  40  41 0
 6-311+G(2d,p)
 ****
 1  2  3  4  5  16  17  18  19  20  21  22  23  24  25 0
 3-21G
 ****
 27  28  30  31  32  35  37  42  43  44  45  46  47 0
 3-21G
 ****
 48  49 0
 3-21G
 ****


