%nproc=1
%NoSave
%Mem=1900MB
#P OB98/GEN NMR

erre ene a

0 1
  C     -107.845    -540.793    -344.343
  O     -107.869    -540.897    -345.773
  P     -106.516    -540.474    -346.532
  C     -106.780    -538.146    -347.671
  O     -106.410    -538.867    -346.499
  C     -106.716    -536.639    -347.413
  O     -107.667    -536.203    -346.429
  C     -105.352    -536.173    -346.910
  O     -104.453    -536.062    -348.000
  C     -105.698    -534.825    -346.287
  O     -105.744    -533.776    -347.285
  C     -107.108    -535.070    -345.718
  N     -107.236    -532.970    -341.097
  C     -107.039    -532.381    -342.330
  N     -106.892    -531.043    -342.345
  N     -107.008    -533.048    -343.457
  C     -107.171    -534.381    -343.300
  C     -107.399    -535.079    -342.124
  C     -107.425    -534.330    -340.891
  O     -107.616    -534.798    -339.778
  N     -107.578    -536.426    -342.372
  C     -107.347    -536.548    -343.667
  N     -107.156    -535.329    -344.289
  O     -106.833    -540.804    -348.063
  O     -105.304    -541.199    -346.045
  H     -106.360    -534.047    -347.992
  H     -106.305    -541.573    -348.356
  H     -107.234    -532.411    -340.263
  H     -107.321    -537.483    -344.203
  H     -107.770    -534.211    -345.891
  H     -104.963    -534.517    -345.549
  H     -106.909    -530.455    -341.514
  H     -104.980    -536.854    -346.147
  H     -106.759    -530.585    -343.244
  H     -106.956    -536.132    -348.372
  H     -107.792    -538.428    -347.975
  H     -106.116    -538.438    -348.485
  P     -103.245    -537.118    -348.091
  C     -101.620    -535.902    -346.479
  O     -102.430    -537.032    -346.711
  O     -102.263    -536.469    -349.170
  O     -103.665    -538.491    -348.499
  H     -101.956    -537.150    -349.789
  H     -101.569    -535.731    -345.397
  H     -102.013    -535.011    -346.964
  H     -100.607    -536.094    -346.853
  H     -108.791    -541.098    -343.947
  H     -107.651    -539.779    -344.062
  H     -107.075    -541.425    -343.952

 3  4  5  6  7  8  9  10  11  12  23  26  30  31 0
 6-311+G(2d,p)
 ****
 33  35  36  37  38 0
 6-311+G(2d,p)
 ****
 1  2  13  14  15  16  17  18  19  20  21  22  24  25 0
 3-21G
 ****
 27  28  29  32  34  39  40  41  42  43  44  45  46  47  48  49 0
 3-21G
 ****


