%nproc=1
%NoSave
%Mem=1900MB
#P OB98/GEN NMR

erre ene a

0 1
  C     -149.203     118.103    -109.317
  O     -149.712     116.883    -108.814
  P     -149.191     115.475    -109.368
  C     -151.258     114.981    -110.797
  O     -149.860     115.228    -110.804
  C     -151.590     113.632    -111.437
  O     -151.404     113.722    -112.874
  C     -150.732     112.466    -110.923
  O     -151.586     111.318    -110.843
  C     -149.704     112.289    -112.023
  O     -149.125     110.990    -112.021
  C     -150.540     112.633    -113.257
  N     -149.719     112.983    -114.408
  C     -149.663     112.058    -115.452
  O     -150.184     110.947    -115.322
  N     -149.010     112.410    -116.607
  C     -148.314     113.505    -116.636
  N     -147.737     113.850    -117.821
  C     -148.148     114.385    -115.461
  C     -148.906     114.091    -114.407
  O     -149.321     114.331    -108.417
  O     -147.651     115.741    -109.732
  H     -147.097     115.070    -109.286
  H     -148.448     110.941    -112.728
  H     -147.458     115.216    -115.497
  H     -148.876     114.693    -113.505
  H     -151.190     111.788    -113.529
  H     -148.896     113.019    -111.891
  H     -150.295     112.663    -109.940
  H     -152.654     113.424    -111.261
  H     -147.904     113.244    -118.616
  H     -151.748     115.774    -111.366
  H     -147.457     114.811    -118.028
  H     -151.641     115.024    -109.770
  P     -151.374     110.295    -109.617
  C     -150.076     108.586    -111.075
  O     -150.075     109.417    -109.929
  O     -152.562     109.243    -109.868
  O     -151.491     110.874    -108.242
  H     -152.797     108.820    -109.021
  H     -149.142     108.015    -111.090
  H     -150.124     109.197    -111.979
  H     -150.913     107.888    -111.045
  H     -149.679     118.921    -108.818
  H     -149.397     118.164    -110.367
  H     -148.148     118.147    -109.146

 3  4  5  6  7  8  9  10  11  12  13  24  27  28  29  30  32 0
 6-311+G(2d,p)
 ****
 34  35 0
 6-311+G(2d,p)
 ****
 1  2  14  15  16  17  18  19  20  21  22  23  25  26 0
 3-21G
 ****
 31  33  36  37  38  39  40  41  42  43  44  45  46 0
 3-21G
 ****


