%nproc=1
%NoSave
%Mem=1900MB
#P OB98/GEN NMR

erre ene a

0 1
  C      295.758     124.730      -6.967
  O      295.164     125.736      -6.168
  H      295.570     123.759      -6.504
  H      296.837     124.893      -7.032
  H      295.319     124.736      -7.969
  P      295.294     127.242      -6.705
  C      296.717     128.201      -4.740
  O      296.671     127.807      -6.104
  C      298.160     128.502      -4.324
  O      298.175     128.848      -2.907
  C      299.116     127.312      -4.505
  O      300.433     127.819      -4.778
  C      299.098     126.688      -3.117
  O      300.187     125.811      -2.955
  C      299.109     127.953      -2.267
  N      300.178     125.249       1.919
  C      300.794     125.334       0.722
  N      300.448     126.089      -0.344
  C      299.363     126.829      -0.068
  C      298.627     126.847       1.106
  C      299.075     126.001       2.137
  N      298.440     125.894       3.353
  N      297.559     127.719       0.998
  C      297.651     128.222      -0.219
  N      298.727     127.714      -0.895
  O      294.168     128.024      -5.874
  O      295.128     127.421      -8.175
  H      301.039     126.284      -3.046
  H      293.336     128.044      -6.380
  H      301.677     124.713       0.599
  H      296.972     128.939      -0.658
  H      300.092     128.442      -2.258
  H      298.184     126.108      -2.957
  H      298.811     126.626      -5.301
  H      298.517     129.385      -4.868
  H      296.313     127.388      -4.127
  H      296.102     129.096      -4.600
  H      298.809     125.243       4.027
  H      297.597     126.425       3.515
  P      300.962     127.838      -6.294
  C      301.833     125.394      -6.557
  O      300.879     126.373      -6.939
  O      302.539     128.032      -6.094
  O      300.413     128.936      -7.149
  H      302.871     128.716      -6.709
  H      301.634     124.480      -7.077
  H      301.768     125.225      -5.502
  H      302.816     125.738      -6.803

 6  7  8  9  10  11  12  13  14  15  25  28  32  33  34  35 0
 6-311+G(2d,p)
 ****
 36  37  40 0
 6-311+G(2d,p)
 ****
 1  2  3  4  5  16  17  18  19  20  21  22  23  24 0
 3-21G
 ****
 26  27  29  30  31  38  39 41  42  43  44  45  46  47  48 0
 3-21G
 ****


