%nproc=1
%NoSave
%Mem=1900MB
#P OB98/GEN NMR

erre ene a

0 1
  C      171.859    -267.042      58.871
  O      171.011    -268.150      59.103
  H      171.533    -266.212      59.502
  H      171.786    -266.738      57.823
  H      172.895    -267.285      59.118
  P      171.503    -269.568      58.536
  C      172.059    -270.159      61.000
  O      172.483    -270.188      59.647
  C      172.530    -271.410      61.731
  O      172.212    -271.325      63.138
  C      171.902    -272.706      61.229
  O      172.579    -273.209      60.083
  C      172.120    -273.612      62.430
  O      173.493    -274.053      62.460
  C      171.850    -272.656      63.600
  N      168.796    -272.104      67.616
  C      170.178    -272.121      67.548
  N      170.839    -271.979      68.717
  N      170.850    -272.271      66.437
  C      170.060    -272.422      65.349
  C      168.681    -272.429      65.286
  C      167.952    -272.245      66.522
  O      166.726    -272.212      66.634
  N      168.235    -272.611      64.007
  C      169.337    -272.739      63.297
  N      170.471    -272.635      64.061
  O      172.493    -269.149      57.347
  O      170.419    -270.468      58.049
  H      173.618    -274.549      63.292
  H      172.029    -269.266      56.496
  H      168.327    -271.993      68.497
  H      169.367    -272.900      62.225
  H      172.470    -272.883      64.473
  H      171.502    -274.510      62.398
  H      170.382    -271.882      69.613
  H      170.827    -272.592      61.046
  H      171.850    -271.987      68.690
  H      173.624    -271.456      61.649
  H      170.964    -270.108      61.032
  H      172.474    -269.266      61.485
  P      172.197    -274.673      59.556
  C      170.357    -273.765      57.967
  O      170.668    -274.613      59.067
  O      172.123    -275.522      60.911
  O      173.161    -275.275      58.588
  H      172.862    -276.165      60.944
  H      169.310    -273.826      57.754
  H      170.914    -274.076      57.108
  H      170.613    -272.755      58.212

 6  7  8  9  10  11  12  13  14  15  26  29  33  34 0
 6-311+G(2d,p)
 ****
 36  38  39  40  41 0
 6-311+G(2d,p)
 ****
 1  2  3  4  5  16  17  18  19  20  21  22  23  24  25 0
 3-21G
 ****
 27  28  30  31  32  35  37  42  43  44  45  46  47 0
 3-21G
 ****
 48  49 0
 3-21G
 ****


