%nproc=1
%NoSave
%Mem=1900MB
#P OB98/GEN NMR

erre ene a

0 1
  C      791.921     318.583     727.453
  O      792.843     318.433     726.388
  H      791.715     317.599     727.872
  H      790.990     319.013     727.090
  H      792.343     319.223     728.236
  P      793.379     319.780     725.695
  C      795.653     318.585     725.270
  O      794.984     319.723     725.787
  C      797.113     318.938     724.951
  O      797.142     319.727     723.738
  C      797.780     319.765     726.062
  O      799.138     319.367     726.177
  C      797.704     321.186     725.528
  O      798.672     322.058     726.084
  C      797.872     320.948     724.026
  N      797.360     322.062     723.224
  C      798.158     323.196     723.121
  O      799.288     323.298     723.593
  N      797.611     324.248     722.442
  C      796.361     324.287     721.883
  O      795.921     325.261     721.295
  C      795.569     323.060     722.019
  C      796.093     322.026     722.683
  O      792.988     320.919     726.754
  O      792.841     320.062     724.333
  H      792.106     321.273     726.565
  H      799.560     321.655     725.928
  H      798.181     325.073     722.352
  H      794.571     323.058     721.609
  H      795.525     321.108     722.826
  H      798.919     320.767     723.786
  H      796.714     321.615     725.742
  H      797.286     319.666     727.029
  H      797.655     318.020     724.757
  H      795.142     318.264     724.346
  H      795.605     317.777     726.004
  P      799.491     318.169     727.197
  C      800.651     316.890     725.227
  O      799.690     316.864     726.280
  O      798.073     317.947     727.888
  O      800.628     318.493     728.107
  H      797.314     318.062     727.297
  H      800.653     315.947     724.722
  H      801.622     317.078     725.635
  H      800.399     317.665     724.534

 6  7  8  9  10  11  12  13  14  15  16  27  31  32  33  34  35 0
 6-311+G(2d,p)
 ****
 36  37 0
 6-311+G(2d,p)
 ****
 1  2  3  4  5  17  18  19  20  21  22  23  24  25 0
 3-21G
 ****
 26  28  29  30  38  39  40  41  42  43  44  45 0
 3-21G
 ****


