%nproc=1
%NoSave
%Mem=1900MB
#P OB98/GEN NMR

erre ene a

0 1
  C     -896.328     219.674     525.495
  O     -895.648     219.593     526.733
  H     -895.678     219.335     524.687
  H     -897.208     219.021     525.537
  H     -896.668     220.698     525.302
  P     -894.428     220.612     526.947
  C     -896.098     222.528     527.501
  O     -895.028     222.081     526.675
  C     -896.198     224.054     527.447
  O     -894.968     224.621     527.960
  C     -896.418     224.601     526.031
  O     -897.328     225.710     526.105
  C     -895.048     225.088     525.623
  O     -895.108     226.108     524.635
  C     -894.478     225.544     526.962
  N     -890.348     228.424     526.073
  C     -891.668     228.713     526.096
  N     -892.708     227.893     526.347
  C     -892.268     226.657     526.649
  C     -890.968     226.205     526.673
  C     -889.968     227.157     526.358
  N     -888.618     226.851     526.301
  N     -890.908     224.859     526.989
  C     -892.168     224.511     527.158
  N     -893.028     225.562     526.953
  O     -893.518     220.336     525.653
  O     -893.658     220.447     528.212
  H     -895.538     226.893     525.018
  H     -892.988     219.528     525.795
  H     -891.918     229.751     525.869
  H     -892.508     223.517     527.421
  H     -894.808     226.563     527.233
  H     -894.458     224.250     525.219
  H     -896.808     223.846     525.345
  H     -896.998     224.367     528.129
  H     -895.908     222.208     528.530
  H     -887.988     227.574     526.003
  H     -888.328     225.904     526.445
  H     -897.028     222.080     527.159
  P     -898.878     225.343     526.276
  C     -899.308     226.879     528.328
  O     -899.298     225.547     527.817
  O     -898.928     223.757     526.077
  O     -899.768     226.032     525.286
  H     -899.608     223.511     525.442
  H     -899.604     226.864     529.356
  H     -900.000     227.471     527.766
  H     -898.328     227.300     528.245

 6  7  8  9  10  11  12  13  14  15  25  28  32  33  34  35 0
 6-311+G(2d,p)
 ****
 36  39  40 0
 6-311+G(2d,p)
 ****
 1  2  3  4  5  16  17  18  19  20  21  22  23  24 0
 3-21G
 ****
 26  27  29  30  31  37  38  41  42  43  44  45  46  47 0
 3-21G
 ****
 48 0
 3-21G
 ****


