%nproc=1
%NoSave
%Mem=1900MB
#P OB98/GEN NMR

erre ene a

0 1
  C      123.156     123.718     138.091
  O      123.040     123.265     136.757
  H      124.191     123.627     138.431
  H      122.865     124.772     138.131
  H      122.496     123.144     138.746
  P      123.414     121.729     136.479
  C      125.103     122.140     134.548
  O      123.823     121.655     134.929
  C      125.252     122.057     133.033
  O      125.181     120.680     132.599
  C      124.166     122.792     132.255
  O      124.417     124.183     132.166
  C      124.295     122.121     130.898
  O      125.438     122.650     130.201
  C      124.541     120.660     131.294
  N      121.333     117.646     128.685
  C      122.451     118.306     128.317
  N      123.247     119.091     129.069
  C      122.787     119.165     130.328
  C      121.658     118.555     130.848
  C      120.913     117.754     129.966
  N      119.764     117.092     130.335
  N      121.488     118.894     132.178
  C      122.517     119.668     132.458
  N      123.325     119.870     131.372
  O      121.998     120.984     136.517
  O      124.405     121.124     137.416
  H      126.214     122.481     130.769
  H      122.126     120.031     136.683
  H      122.744     118.188     127.276
  H      122.720     120.103     133.428
  H      125.219     120.146     130.603
  H      123.426     122.282     130.257
  H      123.169     122.587     132.663
  H      126.247     122.439     132.768
  H      125.875     121.526     135.021
  H      119.209     116.702     129.589
  H      119.365     117.290     131.242
  H      125.211     123.174     134.886
  P      123.322     125.171     132.799
  C      123.505     127.256     131.254
  O      123.847     126.655     132.500
  O      123.547     125.003     134.372
  O      121.914     124.886     132.390
  H      122.727     125.204     134.864
  H      123.926     128.239     131.205
  H      122.440     127.319     131.169
  H      123.892     126.661     130.453

 6  7  8  9  10  11  12  13  14  15  25  28  32  33  34  35 0
 6-311+G(2d,p)
 ****
 36  39  40 0
 6-311+G(2d,p)
 ****
 1  2  3  4  5  16  17  18  19  20  21  22  23  24 0
 3-21G
 ****
 26  27  29  30  31  37  38  41  42  43  44  45  46  47 0
 3-21G
 ****
 48 0
 3-21G
 ****


