%nproc=1
%NoSave
%Mem=1900MB
#P OB98/GEN NMR

erre ene a

0 1
  C      293.659    -326.644    1176.094
  O      294.519    -327.597    1176.683
  H      293.497    -326.882    1175.043
  H      292.696    -326.667    1176.613
  H      294.082    -325.642    1176.190
  P      295.976    -327.747    1176.043
  C      296.949    -326.057    1177.752
  O      296.781    -326.401    1176.381
  C      297.473    -324.624    1177.877
  O      296.532    -323.733    1177.210
  C      297.656    -324.132    1179.323
  O      299.015    -323.727    1179.534
  C      296.770    -322.897    1179.417
  O      297.361    -321.827    1180.156
  C      296.532    -322.513    1177.962
  N      293.916    -318.362    1179.349
  C      295.238    -318.625    1179.354
  N      295.886    -319.709    1178.862
  C      295.009    -320.573    1178.317
  C      293.638    -320.430    1178.223
  C      293.082    -319.272    1178.796
  N      291.727    -319.031    1178.851
  N      293.072    -321.538    1177.604
  C      294.084    -322.344    1177.365
  N      295.277    -321.811    1177.793
  O      295.699    -327.630    1174.467
  O      296.698    -329.010    1176.384
  H      297.493    -322.162    1181.065
  H      296.167    -328.352    1173.998
  H      295.868    -317.862    1179.798
  H      294.012    -323.332    1176.932
  H      297.340    -321.877    1177.564
  H      295.826    -323.181    1179.912
  H      297.369    -324.880    1180.062
  H      298.419    -324.558    1177.330
  H      297.671    -326.739    1178.224
  H      291.405    -318.231    1179.377
  H      291.091    -319.754    1178.529
  H      295.986    -326.162    1178.272
  P      300.016    -324.847    1180.092
  C      301.316    -324.994    1177.832
  O      300.563    -325.677    1178.831
  O      299.034    -325.890    1180.819
  O      301.063    -324.329    1181.023
  H      299.511    -326.362    1181.530
  H      301.603    -325.685    1177.067
  H      302.192    -324.568    1178.275
  H      300.718    -324.216    1177.404

 6  7  8  9  10  11  12  13  14  15  25  28  32  33  34  35 0
 6-311+G(2d,p)
 ****
 36  39  40 0
 6-311+G(2d,p)
 ****
 1  2  3  4  5  16  17  18  19  20  21  22  23  24 0
 3-21G
 ****
 26  27  29  30  31  37  38  41  42  43  44  45  46  47  48 0
 3-21G
 ****


