%nproc=1
%NoSave
%Mem=1900MB
#P OB98/GEN NMR

erre ene a

0 1
  C       51.652     253.500      72.704
  O       51.658     254.890      73.034
  P       53.038     255.708      73.128
  C       55.002     256.017      74.743
  O       53.775     255.337      74.509
  C       56.063     255.150      75.432
  O       55.793     255.029      76.851
  C       56.192     253.729      74.878
  O       57.576     253.380      75.009
  C       55.339     252.923      75.845
  O       55.627     251.532      75.804
  C       55.655     253.632      77.168
  N       54.628     253.403      78.180
  C       54.788     252.282      78.999
  O       55.727     251.508      78.820
  N       53.849     252.036      79.977
  C       52.793     252.789      80.056
  N       51.889     252.482      81.023
  C       52.542     253.932      79.155
  C       53.495     254.180      78.258
  O       52.919     257.174      72.861
  O       53.968     255.012      72.019
  H       55.092     251.086      76.491
  H       54.595     255.673      71.664
  H       51.635     254.514      79.245
  H       53.409     255.003      77.552
  H       56.618     253.287      77.572
  H       54.279     253.050      75.589
  H       55.861     253.633      73.842
  H       57.025     255.674      75.339
  H       52.088     251.675      81.608
  H       54.800     256.900      75.364
  H       50.985     252.929      81.102
  H       55.391     256.385      73.784
  P       58.617     253.566      73.806
  C       60.234     252.039      72.532
  O       59.093     252.095      73.378
  O       59.728     254.527      74.082
  O       57.728     254.043      72.560
  H       58.308     254.445      71.884
  H       60.588     251.005      72.482
  H       61.039     252.671      72.924
  H       59.964     252.372      71.526
  H       50.644     253.141      72.692
  H       52.215     252.958      73.434
  H       52.092     253.361      71.739

 3  4  5  6  7  8  9  10  11  12  13  23  27  28  29  30  32 0
 6-311+G(2d,p)
 ****
 34  35 0
 6-311+G(2d,p)
 ****
 1  2  14  15  16  17  18  19  20  21  22  24  25  26 0
 3-21G
 ****
 31  33  36  37  38  39  40  41  42  43  44  45  46 0
 3-21G
 ****


