%nproc=1
%NoSave
%Mem=1900MB
#P OB98/GEN NMR

erre ene a

0 1
  C     -260.950      84.668      96.013
  O     -259.957      83.838      96.614
  P     -258.407      84.195      96.396
  C     -257.868      83.268      98.732
  O     -257.522      83.258      97.353
  C     -257.209      82.121      99.509
  O     -257.765      80.840      99.113
  C     -255.686      82.029      99.329
  O     -255.141      81.599     100.582
  C     -255.548      80.943      98.282
  O     -254.244      80.386      98.244
  C     -256.666      79.993      98.721
  N     -257.050      79.060      97.675
  C     -256.705      77.720      97.854
  O     -256.011      77.387      98.815
  N     -257.129      76.802      96.924
  C     -257.710      77.212      95.840
  N     -258.133      76.271      94.953
  C     -257.930      78.638      95.533
  C     -257.602      79.495      96.496
  O     -258.071      85.648      96.451
  O     -258.105      83.591      94.940
  H     -254.252      79.592      97.670
  H     -257.457      84.168      94.489
  H     -258.344      78.936      94.581
  H     -257.732      80.560      96.370
  H     -256.364      79.420      99.607
  H     -255.767      81.358      97.290
  H     -255.224      82.980      99.046
  H     -257.442      82.260     100.574
  H     -257.953      75.298      95.166
  H     -258.954      83.188      98.828
  H     -258.642      76.508      94.110
  H     -257.598      84.240      99.160
  P     -254.259      82.629     101.441
  C     -255.771      82.398     103.543
  O     -254.476      82.291     102.992
  O     -255.098      83.990     101.279
  O     -252.855      82.837     100.980
  H     -254.498      84.748     101.405
  H     -255.789      81.872     104.501
  H     -256.522      81.945     102.887
  H     -256.017      83.449     103.713
  H     -261.922      84.293      96.255
  H     -260.821      84.666      94.951
  H     -260.851      85.667      96.382

 3  4  5  6  7  8  9  10  11  12  13  23  27  28  29  30  32 0
 6-311+G(2d,p)
 ****
 34  35 0
 6-311+G(2d,p)
 ****
 1  2  14  15  16  17  18  19  20  21  22  24  25  26 0
 3-21G
 ****
 31  33  36  37  38  39  40  41  42  43  44  45  46 0
 3-21G
 ****


