%nproc=1
%NoSave
%Mem=1900MB
#P OB98/GEN NMR

erre ene a

0 1
  C      778.641     509.490     479.693
  O      779.433     510.510     480.278
  P      779.232     510.784     481.849
  C      778.058     512.656     483.258
  O      778.245     512.057     481.965
  C      776.584     512.676     483.634
  O      775.885     513.687     482.844
  C      775.871     511.345     483.452
  O      774.934     511.173     484.522
  C      775.104     511.517     482.170
  O      773.967     510.652     482.082
  C      774.765     513.022     482.233
  N      774.463     513.586     480.909
  C      773.126     513.802     480.596
  O      772.234     513.443     481.386
  N      772.794     514.364     479.386
  C      773.745     514.587     478.513
  N      773.370     515.160     477.328
  C      775.168     514.286     478.758
  C      775.440     513.812     479.969
  O      780.651     511.376     482.292
  O      778.841     509.590     482.648
  H      773.473     510.884     481.265
  H      780.858     511.124     483.211
  H      775.900     514.454     477.991
  H      776.451     513.566     480.267
  H      773.866     513.187     482.867
  H      775.746     511.321     481.297
  H      776.552     510.485     483.432
  H      776.508     513.010     484.685
  H      772.382     515.350     477.182
  H      778.415     513.687     483.201
  H      774.031     515.365     476.600
  H      778.646     512.123     483.980
  P      774.769     509.696     485.147
  C      773.504     507.601     484.344
  O      773.607     509.020     484.296
  O      773.989     510.031     486.527
  O      776.006     508.907     485.419
  H      773.874     509.216     487.043
  H      772.610     507.292     483.821
  H      773.449     507.266     485.399
  H      774.385     507.153     483.871
  H      778.872     509.412     478.651
  H      777.605     509.731     479.811
  H      778.848     508.557     480.175

 3  4  5  6  7  8  9  10  11  12  13  21  23  27  28  29  30  32 0
 6-311+G(2d,p)
 ****
 34  35 0
 6-311+G(2d,p)
 ****
 1  2  14  15  16  17  18  19  20  22  24  25  26 0
 3-21G
 ****
 31  33  36  37  38  39  40  41  42  43  44  45  46 0
 3-21G
 ****


