%nproc=1
%NoSave
%Mem=1900MB
#P OB98/GEN NMR

erre ene a

0 1
  C     -491.853    -897.070     556.470
  O     -492.826    -898.130     556.611
  P     -493.817    -898.380     555.373
  C     -495.120    -896.170     555.773
  O     -494.383    -896.970     554.862
  C     -496.049    -895.190     555.038
  O     -497.122    -895.900     554.364
  C     -496.712    -894.180     555.977
  O     -496.945    -892.970     555.234
  C     -498.068    -894.820     556.266
  O     -499.008    -893.870     556.751
  C     -498.374    -895.430     554.891
  N     -503.281    -896.500     555.361
  C     -502.630    -895.280     555.350
  N     -503.406    -894.180     555.452
  N     -501.336    -895.140     555.266
  C     -500.687    -896.330     555.137
  C     -501.218    -897.600     555.134
  C     -502.653    -897.730     555.266
  O     -503.279    -898.790     555.298
  N     -500.235    -898.560     555.014
  C     -499.119    -897.860     554.935
  N     -499.339    -896.510     554.977
  O     -495.088    -899.060     556.075
  O     -493.248    -899.270     554.321
  H     -499.086    -893.170     556.065
  H     -495.126    -900.000     555.853
  H     -504.283    -896.540     555.456
  H     -498.120    -898.280     554.869
  H     -498.779    -894.690     554.194
  H     -497.937    -895.610     557.023
  H     -504.422    -894.210     555.480
  H     -496.162    -893.940     556.882
  H     -502.961    -893.270     555.406
  H     -495.468    -894.670     554.270
  H     -494.429    -895.610     556.420
  H     -495.680    -896.830     556.446
  P     -496.112    -891.680     555.684
  C     -497.616    -890.750     557.590
  O     -496.434    -891.450     557.234
  O     -496.873    -890.460     554.959
  O     -494.664    -891.710     555.325
  H     -496.272    -889.710     554.828
  H     -498.372    -891.480     557.926
  H     -498.018    -890.180     556.746
  H     -497.385    -890.060     558.403
  H     -491.260    -897.009     557.359
  H     -492.359    -896.140     556.315
  H     -491.220    -897.276     555.632

 3  4  5  6  7  8  9  10  11  12  23  26  30  31 0
 6-311+G(2d,p)
 ****
 33  35  36  37  38 0
 6-311+G(2d,p)
 ****
 1  2  13  14  15  16  17  18  19  20  21  22  24  25 0
 3-21G
 ****
 27  28  29  32  34  39  40  41  42  43  44  45  46  47  48  49 0
 3-21G
 ****


