%nproc=1
%NoSave
%Mem=1900MB
#P OB98/GEN NMR

erre ene a

0 1
  C      -13.399       2.719      22.951
  O      -13.378       3.366      21.698
  H      -14.106       1.887      22.902
  H      -13.731       3.417      23.724
  H      -12.414       2.325      23.210
  P      -12.205       4.410      21.387
  C      -11.215       3.168      19.354
  O      -11.900       4.323      19.816
  C      -11.905       2.586      18.114
  O      -13.160       1.979      18.515
  C      -12.243       3.679      17.095
  O      -12.276       3.179      15.762
  C      -13.649       4.093      17.503
  O      -14.381       4.707      16.443
  C      -14.234       2.761      17.966
  N      -19.082       1.784      19.194
  C      -18.439       1.622      17.983
  N      -19.188       1.133      16.967
  N      -17.186       1.934      17.781
  C      -16.582       2.478      18.864
  C      -17.120       2.709      20.110
  C      -18.499       2.328      20.331
  O      -19.124       2.471      21.377
  N      -16.203       3.286      20.952
  C      -15.116       3.408      20.219
  N      -15.288       2.908      18.951
  O      -10.909       3.721      22.029
  O      -12.413       5.794      21.921
  H      -13.908       5.523      16.196
  H      -10.225       4.390      22.212
  H      -20.040       1.501      19.304
  H      -14.180       3.832      20.559
  H      -14.652       2.205      17.117
  H      -13.569       4.827      18.308
  H      -20.192       1.070      17.030
  H      -11.559       4.523      17.141
  H      -18.833       1.302      16.022
  H      -11.291       1.788      17.682
  H      -11.221       2.444      20.172
  H      -10.172       3.405      19.139
  P      -12.441       4.221      14.557
  C      -10.334       3.490      13.134
  O      -11.730       3.652      13.247
  O      -11.518       5.451      14.990
  O      -13.853       4.645      14.297
  H      -12.061       6.247      15.140
  H      -10.098       3.095      12.168
  H       -9.991       2.814      13.889
  H       -9.854       4.438      13.259

 6  7  8  9  10  11  12  13  14  15  26  29  33  34 0
 6-311+G(2d,p)
 ****
 36  38  39  40  41 0
 6-311+G(2d,p)
 ****
 1  2  3  4  5  16  17  18  19  20  21  22  23  24  25 0
 3-21G
 ****
 27  28  30  31  32  35  37  42  43  44  45  46  47 0
 3-21G
 ****
 48  49 0
 3-21G
 ****


