%nproc=1
%NoSave
%Mem=1900MB
#P OB98/GEN NMR

erre ene a

0 1
  C      -33.765     -10.394      40.160
  O      -34.764     -11.378      40.351
  H      -33.449     -10.414      39.114
  H      -32.901     -10.607      40.794
  H      -34.165      -9.403      40.390
  P      -35.381     -11.492      41.828
  C      -33.620     -13.335      42.286
  O      -34.187     -12.101      42.709
  C      -32.686     -13.890      43.358
  O      -31.699     -12.911      43.725
  C      -33.383     -14.283      44.655
  O      -33.984     -15.562      44.539
  C      -32.204     -14.299      45.616
  O      -31.469     -15.529      45.464
  C      -31.352     -13.116      45.121
  N      -29.902     -10.295      49.158
  C      -29.633     -11.573      48.813
  N      -30.087     -12.269      47.750
  C      -30.902     -11.513      46.996
  C      -31.267     -10.195      47.222
  C      -30.721      -9.574      48.358
  N      -30.989      -8.266      48.701
  N      -32.122      -9.748      46.237
  C      -32.227     -10.761      45.401
  N      -31.537     -11.866      45.836
  O      -36.697     -12.183      41.928
  O      -35.385      -9.953      42.276
  H      -31.232     -15.615      44.522
  H      -34.585      -9.502      41.955
  H      -28.963     -12.108      49.480
  H      -32.774     -10.743      44.466
  H      -30.281     -13.342      45.164
  H      -32.518     -14.243      46.660
  H      -34.096     -13.516      44.975
  H      -32.151     -14.745      42.926
  H      -33.073     -13.201      41.347
  H      -30.697      -7.956      49.615
  H      -31.696      -7.773      48.175
  H      -34.447     -14.031      42.108
  P      -35.482     -15.811      45.055
  C      -34.557     -16.438      47.370
  O      -35.457     -15.606      46.647
  O      -36.100     -17.089      44.604
  O      -36.301     -14.539      44.540
  H      -37.196     -14.805      44.254
  H      -34.626     -16.215      48.414
  H      -33.557     -16.260      47.032
  H      -34.811     -17.465      47.207

 6  7  8  9  10  11  12  13  14  15  25  28  32  33  34  35 0
 6-311+G(2d,p)
 ****
 36  39  40 0
 6-311+G(2d,p)
 ****
 1  2  3  4  5  16  17  18  19  20  21  22  23  24 0
 3-21G
 ****
 26  27  29  30  31  37  38  41  42  43  44  45  46  47 0
 3-21G
 ****
 48 0
 3-21G
 ****


