%nproc=1
%NoSave
%Mem=1900MB
#P OB98/GEN NMR

erre ene a

0 1
  C      -89.816    -289.943     -83.868
  O      -89.032    -288.763     -83.941
  P      -89.634    -287.424     -84.597
  C      -88.668    -288.232     -86.839
  O      -88.774    -287.148     -85.925
  C      -88.032    -287.774     -88.154
  O      -87.935    -288.908     -89.050
  C      -88.826    -286.690     -88.865
  O      -87.913    -285.785     -89.502
  C      -89.587    -287.432     -89.953
  O      -89.901    -286.570     -91.057
  C      -88.617    -288.571     -90.276
  N      -89.910    -291.280     -94.443
  C      -89.191    -290.144     -94.300
  N      -88.908    -289.467     -93.164
  C      -89.405    -290.108     -92.095
  C      -90.160    -291.274     -92.088
  C      -90.414    -291.872     -93.332
  N      -91.139    -293.035     -93.482
  N      -90.524    -291.615     -90.799
  C      -89.987    -290.681     -90.041
  N      -89.290    -289.758     -90.779
  O      -89.741    -286.263     -83.676
  O      -91.057    -287.866     -85.172
  H      -90.455    -287.086     -91.684
  H      -91.715    -287.150     -85.041
  H      -88.789    -289.729     -95.222
  H      -90.079    -290.623     -88.965
  H      -87.856    -288.263     -91.011
  H      -90.531    -287.810     -89.541
  H      -89.492    -286.135     -88.193
  H      -87.001    -287.436     -87.944
  H      -89.670    -288.618     -87.041
  H      -91.170    -293.455     -94.398
  H      -91.363    -293.564     -92.646
  H      -88.075    -289.036     -86.383
  P      -88.324    -284.224     -89.462
  C      -88.769    -283.962     -92.017
  O      -87.936    -283.668     -90.909
  O      -87.731    -283.522     -88.281
  O      -89.923    -284.325     -89.453
  H      -90.231    -285.168     -89.860
  H      -88.319    -283.525     -92.919
  H      -89.758    -283.524     -91.875
  H      -88.858    -285.047     -92.150
  H      -89.247    -290.721     -83.403
  H      -90.096    -290.247     -84.855
  H      -90.696    -289.751     -83.291

 3  4  5  6  7  8  9  10  11  12  22  25  29  30  31  32 0
 6-311+G(2d,p)
 ****
 33  36  37 0
 6-311+G(2d,p)
 ****
 1  2  13  14  15  16  17  18  19  20  21  23  24  26 0
 3-21G
 ****
 27  28  34  35  38  39  40  41  42  43  44  45  46  47  48 0
 3-21G
 ****


