%nproc=1
%NoSave
%Mem=1900MB
#P OB98/GEN NMR

erre ene a

0 1
  C      -25.513     274.387      71.042
  O      -25.813     273.612      72.184
  P      -26.528     274.207      73.483
  C      -24.514     274.257      75.127
  O      -25.429     275.011      74.337
  C      -24.101     274.978      76.418
  O      -23.773     276.351      76.116
  C      -25.277     275.021      77.400
  O      -25.543     273.915      78.238
  C      -25.141     276.356      78.122
  O      -24.510     276.229      79.398
  C      -24.273     277.187      77.173
  N      -25.392     282.113      77.607
  C      -24.418     281.381      78.259
  N      -23.800     282.005      79.286
  N      -24.106     280.148      77.946
  C      -24.876     279.631      76.960
  C      -25.857     280.261      76.231
  C      -26.168     281.630      76.562
  O      -27.082     282.287      76.063
  N      -26.480     279.401      75.363
  C      -25.904     278.240      75.590
  N      -24.951     278.322      76.581
  O      -27.474     273.303      74.204
  O      -27.401     275.406      72.843
  H      -24.389     277.126      79.762
  H      -28.227     275.475      73.361
  H      -25.646     283.031      77.945
  H      -26.158     277.310      75.097
  H      -23.393     277.579      77.700
  H      -26.128     276.796      78.308
  H      -24.119     282.892      79.649
  H      -26.188     275.120      76.795
  H      -23.209     281.444      79.891
  H      -23.192     274.541      76.838
  H      -23.641     274.046      74.503
  H      -24.966     273.295      75.385
  P      -26.986     273.353      78.637
  C      -27.128     274.657      80.835
  O      -27.713     274.439      79.563
  O      -26.677     272.165      79.666
  O      -27.806     272.853      77.494
  H      -27.432     271.547      79.690
  H      -27.853     275.167      81.477
  H      -26.243     275.294      80.725
  H      -26.839     273.711      81.299
  H      -25.038     273.771      70.308
  H      -24.856     275.186      71.316
  H      -26.417     274.791      70.638

 3  4  5  6  7  8  9  10  11  12  23  26  30  31 0
 6-311+G(2d,p)
 ****
 33  35  36  37  38 0
 6-311+G(2d,p)
 ****
 1  2  13  14  15  16  17  18  19  20  21  22  24  25 0
 3-21G
 ****
 27  28  29  32  34  39  40  41  42  43  44  45  46  47  48  49 0
 3-21G
 ****


