%nproc=1
%NoSave
%Mem=1900MB
#P OB98/GEN NMR

erre ene a

0 1
  C      205.202     -65.863     874.265
  O      204.213     -66.381     873.399
  P      203.899     -65.638     872.012
  C      203.759     -63.139     871.415
  O      203.406     -64.146     872.352
  C      203.431     -61.754     871.969
  O      204.238     -61.471     873.126
  C      203.698     -60.614     870.985
  O      202.682     -60.541     870.003
  C      203.762     -59.416     871.934
  O      202.432     -58.959     872.257
  C      204.422     -60.042     873.185
  N      207.813     -56.473     874.538
  C      206.466     -56.443     874.399
  N      205.637     -57.423     874.003
  C      206.327     -58.525     873.687
  C      207.707     -58.699     873.732
  C      208.470     -57.618     874.203
  N      209.827     -57.655     874.393
  N      208.050     -59.973     873.299
  C      206.908     -60.547     872.990
  N      205.836     -59.729     873.278
  O      203.017     -66.388     871.074
  O      205.348     -65.414     871.367
  H      201.887     -59.755     872.379
  H      205.395     -65.878     870.509
  H      205.991     -55.494     874.674
  H      206.794     -61.541     872.591
  H      203.949     -59.691     874.113
  H      204.305     -58.573     871.517
  H      204.681     -60.747     870.516
  H      202.374     -61.755     872.283
  H      203.183     -63.318     870.498
  H      210.256     -56.877     874.875
  H      210.285     -58.567     874.445
  H      204.822     -63.215     871.176
  P      202.982     -59.811     868.611
  C      203.461     -57.396     867.845
  O      203.027     -58.238     868.908
  O      202.110     -60.231     867.465
  O      204.522     -60.158     868.320
  H      204.675     -60.214     867.368
  H      204.551     -57.453     867.789
  H      203.172     -56.383     868.059
  H      203.021     -57.726     866.894
  H      205.275     -66.482     875.134
  H      204.935     -64.869     874.557
  H      206.145     -65.846     873.760

 3  4  5  6  7  8  9  10  11  12  22  25  29  30  31  32 0
 6-311+G(2d,p)
 ****
 33  36  37 0
 6-311+G(2d,p)
 ****
 1  2  13  14  15  16  17  18  19  20  21  23  24  26 0
 3-21G
 ****
 27  28  34  35  38  39  40  41  42  43  44  45  46  47  48 0
 3-21G
 ****


