%nproc=1
%NoSave
%Mem=1900MB
#P OB98/GEN NMR

erre ene a

0 1
  C     -650.340     149.544    -896.610
  O     -649.367     150.363    -897.220
  H     -650.018     148.499    -896.680
  H     -651.307     149.649    -897.110
  H     -650.445     149.819    -895.550
  P     -649.666     151.941    -897.250
  C     -647.521     152.611    -896.020
  O     -648.929     152.521    -895.940
  C     -646.867     151.637    -895.030
  O     -647.245     150.285    -895.420
  C     -645.340     151.697    -895.010
  O     -644.860     151.535    -893.680
  C     -644.925     150.502    -895.860
  O     -643.611     150.038    -895.530
  C     -646.054     149.506    -895.560
  N     -645.248     144.652    -896.920
  C     -645.121     145.292    -895.750
  N     -645.358     146.588    -895.460
  C     -645.852     147.234    -896.550
  C     -646.037     146.714    -897.820
  C     -645.704     145.363    -897.990
  N     -645.818     144.696    -899.200
  N     -646.519     147.698    -898.660
  C     -646.606     148.773    -897.930
  N     -646.208     148.551    -896.650
  O     -651.106     152.319    -897.400
  O     -648.707     152.428    -898.440
  H     -643.621     149.712    -894.620
  H     -647.822     152.021    -898.370
  H     -644.745     144.690    -894.910
  H     -646.947     149.757    -898.290
  H     -645.858     148.932    -894.650
  H     -644.928     150.790    -896.930
  H     -644.948     152.645    -895.430
  H     -647.278     151.815    -894.020
  H     -647.192     153.647    -895.770
  H     -645.586     143.722    -899.240
  H     -646.180     145.203    -900.000
  H     -647.200     152.399    -897.040
  P     -644.398     152.827    -892.870
  C     -646.111     152.700    -890.930
  O     -645.670     153.429    -892.080
  O     -643.570     153.822    -893.620
  O     -643.530     152.186    -891.680
  H     -642.760     152.788    -891.480
  H     -646.954     153.195    -890.496
  H     -645.318     152.651    -890.213
  H     -646.390     151.709    -891.221

 6  7  8  9  10  11  12  13  14  15  25  28  32  33  34  35 0
 6-311+G(2d,p)
 ****
 36  39  40 0
 6-311+G(2d,p)
 ****
 1  2  3  4  5  16  17  18  19  20  21  22  23  24 0
 3-21G
 ****
 26  27  29  30  31  37  38  41  42  43  44  45  46  47 0
 3-21G
 ****
 48 0
 3-21G
 ****


