%nproc=1
%NoSave
%Mem=1900MB
#P OB98/GEN NMR

erre ene a

0 1
  C       42.520     164.767    -104.816
  O       41.237     165.338    -104.990
  H       43.192     165.179    -105.572
  H       42.477     163.682    -104.942
  H       42.915     165.011    -103.826
  P       40.066     164.885    -103.997
  C       39.652     162.804    -105.468
  O       39.936     163.296    -104.165
  C       38.563     161.739    -105.398
  O       38.953     160.678    -104.505
  C       37.218     162.261    -104.894
  O       36.512     162.904    -105.941
  C       36.572     160.960    -104.446
  O       36.101     160.230    -105.595
  C       37.762     160.229    -103.802
  N       36.064     159.222     -99.134
  C       35.582     158.809    -100.361
  N       34.461     158.057    -100.340
  N       36.135     159.124    -101.503
  C       37.206     159.940    -101.370
  C       37.767     160.427    -100.211
  C       37.179     160.027     -98.952
  O       37.585     160.355     -97.841
  N       38.808     161.281    -100.476
  C       38.900     161.278    -101.792
  N       37.940     160.491    -102.383
  O       38.762     165.614    -104.131
  O       40.702     165.054    -102.540
  H       35.835     159.348    -105.275
  H       40.505     165.932    -102.168
  H       35.582     158.960     -98.290
  H       39.641     161.823    -102.364
  H       37.698     159.142    -103.924
  H       35.719     161.111    -103.783
  H       33.850     158.029     -99.533
  H       37.336     162.908    -104.021
  H       34.064     157.787    -101.231
  H       38.462     161.297    -106.398
  H       40.579     162.380    -105.869
  H       39.328     163.620    -106.120
  P       35.698     164.264    -105.677
  C       33.434     163.191    -106.308
  O       34.218     163.790    -105.286
  O       35.762     165.257    -106.787
  O       36.266     164.809    -104.290
  H       37.058     165.392    -104.388
  H       32.476     162.924    -105.913
  H       33.928     162.313    -106.668
  H       33.307     163.884    -107.113

 6  7  8  9  10  11  12  13  14  15  26  29  33  34 0
 6-311+G(2d,p)
 ****
 36  38  39  40  41 0
 6-311+G(2d,p)
 ****
 1  2  3  4  5  16  17  18  19  20  21  22  23  24  25 0
 3-21G
 ****
 27  28  30  31  32  35  37  42  43  44  45  46  47 0
 3-21G
 ****
 48  49 0
 3-21G
 ****


