%nproc=1
%NoSave
%Mem=1900MB
#P OB98/GEN NMR

erre ene a

0 1
  C     -253.619      44.816    -135.906
  O     -254.551      45.801    -135.449
  P     -255.058      46.871    -136.537
  C     -257.524      46.717    -135.714
  O     -256.616      46.584    -136.801
  C     -258.780      47.466    -136.150
  O     -258.500      48.858    -136.383
  C     -259.390      46.962    -137.452
  O     -260.163      45.790    -137.249
  C     -260.281      48.136    -137.836
  O     -261.530      48.055    -137.124
  C     -259.462      49.344    -137.351
  N     -257.802      53.804    -139.100
  C     -258.512      53.514    -137.954
  N     -258.800      54.554    -137.144
  N     -258.908      52.307    -137.629
  C     -258.525      51.360    -138.516
  C     -257.821      51.523    -139.689
  C     -257.419      52.864    -140.052
  O     -256.814      53.181    -141.069
  N     -257.614      50.324    -140.318
  C     -258.166      49.432    -139.520
  N     -258.746      50.016    -138.417
  O     -254.358      46.369    -137.887
  O     -254.700      48.282    -136.211
  H     -262.082      48.803    -137.431
  H     -254.234      47.120    -138.498
  H     -257.528      54.747    -139.306
  H     -258.169      48.366    -139.685
  H     -260.090      50.083    -136.842
  H     -260.523      48.153    -138.900
  H     -258.465      55.495    -137.294
  H     -258.614      46.814    -138.214
  H     -259.289      54.356    -136.278
  H     -259.520      47.393    -135.340
  H     -257.044      47.258    -134.896
  H     -257.773      45.720    -135.335
  P     -259.453      44.382    -137.555
  C     -258.715      43.682    -135.171
  O     -258.334      44.210    -136.422
  O     -258.615      44.682    -138.888
  O     -260.398      43.239    -137.729
  H     -258.516      43.864    -139.409
  H     -259.393      42.829    -135.288
  H     -259.205      44.458    -134.575
  H     -257.821      43.344    -134.641
  H     -253.360      44.167    -135.096
  H     -252.738      45.301    -136.271
  H     -254.063      44.243    -136.693

 3  4  5  6  7  8  9  10  11  12  23  26  30  31  33  0
 6-311+G(2d,p)
 ****
 35  36  37  38 0
 6-311+G(2d,p)
 ****
 1  2  13  14  15  16  17  18  19  20  21  22  24  25  27  28  29 0
 3-21G
 ****
 32  34  39  40  41  42  43  44  45  46  47  48  49 0
 3-21G
 ****


