%nproc=1
%NoSave
%Mem=1900MB
#P OB98/GEN NMR

erre ene a

0 1
  C      433.725    1088.864    -399.263
  O      432.335    1089.016    -399.572
  P      431.341    1089.517    -398.426
  C      431.348    1091.955    -399.293
  O      431.535    1091.091    -398.191
  C      431.708    1093.403    -398.913
  O      433.137    1093.606    -398.969
  C      431.120    1094.437    -399.869
  O      429.725    1094.611    -399.825
  C      431.985    1095.659    -399.583
  O      431.529    1096.373    -398.430
  C      433.365    1095.001    -399.303
  N      434.292    1095.139    -400.420
  C      434.954    1096.349    -400.555
  O      434.754    1097.313    -399.797
  N      435.827    1096.460    -401.603
  C      436.077    1095.521    -402.539
  O      436.848    1095.657    -403.475
  C      435.326    1094.250    -402.362
  C      434.492    1094.111    -401.331
  O      431.274    1088.682    -397.187
  O      429.903    1089.488    -399.184
  H      432.119    1097.120    -398.288
  H      429.244    1089.140    -398.551
  H      436.310    1097.354    -401.689
  H      435.498    1093.452    -403.104
  H      433.933    1093.189    -401.187
  H      433.842    1095.460    -398.428
  H      431.981    1096.349    -400.422
  H      431.350    1094.116    -400.896
  H      431.394    1093.566    -397.879
  H      430.312    1091.896    -399.632
  H      431.959    1091.605    -400.142
  P      428.700    1093.846    -400.823
  C      427.701    1092.346    -398.964
  O      428.385    1092.404    -400.189
  O      429.003    1093.911    -402.281
  O      427.332    1094.645    -400.537
  H      426.826    1094.663    -401.361
  H      427.584    1091.285    -398.685
  H      426.706    1092.789    -399.050
  H      428.271    1092.852    -398.169
  H      434.248    1088.524    -400.132
  H      433.839    1088.149    -398.475
  H      434.126    1089.806    -398.951

 3  4  5  6  7  8  9  10  11  12  13  23  28  29  30  31  32 0
 6-311+G(2d,p)
 ****
 33  34 0
 6-311+G(2d,p)
 ****
 1  2  14  15  16  17  18  19  20  21  22  24  25  26  27 0
 3-21G
 ****
 35  36  37  38  39  40  41  42  43  44  45 0
 3-21G
 ****


