%nproc=1
%NoSave
%Mem=1900MB
#P OB98/GEN NMR

erre ene a

0 1
  C     -826.578     776.465    -892.179
  O     -826.307     776.424    -893.569
  H     -825.994     775.663    -891.679
  H     -827.648     776.278    -891.999
  H     -826.289     777.439    -891.769
  P     -827.160     777.412    -894.489
  C     -829.738     777.815    -894.739
  O     -828.675     777.094    -894.089
  C     -830.710     776.845    -895.419
  O     -831.570     776.238    -894.409
  C     -831.654     777.485    -896.429
  O     -831.012     777.766    -897.689
  C     -832.689     776.400    -896.519
  O     -832.176     775.293    -897.309
  C     -832.868     775.989    -895.059
  N     -833.928     776.755    -894.359
  C     -834.796     776.022    -893.579
  O     -834.688     774.813    -893.459
  N     -835.818     776.682    -892.939
  C     -835.938     777.973    -893.049
  N     -836.991     778.583    -892.419
  C     -835.026     778.796    -893.869
  C     -834.047     778.111    -894.509
  O     -827.027     776.779    -895.969
  O     -826.779     778.877    -894.409
  H     -831.429     774.909    -896.809
  H     -827.627     777.249    -896.589
  H     -835.187     779.873    -893.969
  H     -833.335     778.693    -895.129
  H     -833.071     774.934    -894.939
  H     -833.598     776.737    -897.019
  H     -832.105     778.382    -896.019
  H     -830.124     776.021    -895.859
  H     -837.642     777.992    -891.929
  H     -829.288     778.468    -895.509
  H     -837.243     779.541    -892.559
  H     -830.267     778.431    -893.999
  P     -831.244     779.228    -898.299
  C     -833.319     780.501    -899.229
  O     -832.741     779.270    -898.869
  O     -830.338     779.184    -899.639
  O     -830.883     780.357    -897.369
  H     -829.968     780.083    -899.799
  H     -834.314     780.337    -899.586
  H     -832.734     780.958    -900.000
  H     -833.348     781.145    -898.375

 6  7  8  9  10  11  12  13  14  15  16  26  30  31  32  33  35 0
 6-311+G(2d,p)
 ****
 37  38 0
 6-311+G(2d,p)
 ****
 1  2  3  4  5  17  18  19  20  21  22  23  24  25 0
 3-21G
 ****
 27  28  29  34  36  39  40  41  42  43  44  45  46 0
 3-21G
 ****


