%nproc=1
%NoSave
%Mem=1900MB
#P OB98/GEN NMR

erre ene a

0 1
  C     -258.688    -118.114    -230.266
  O     -258.445    -117.789    -228.907
  P     -257.090    -116.990    -228.581
  C     -256.852    -118.579    -226.521
  O     -256.226    -117.939    -227.623
  C     -255.842    -119.475    -225.805
  O     -255.628    -120.687    -226.553
  C     -254.469    -118.844    -225.617
  O     -254.467    -117.983    -224.492
  C     -253.585    -120.075    -225.453
  O     -253.656    -120.580    -224.103
  C     -254.226    -121.061    -226.441
  N     -251.351    -123.723    -229.636
  C     -251.646    -123.950    -228.308
  N     -251.134    -125.075    -227.761
  N     -252.375    -123.151    -227.574
  C     -252.809    -122.053    -228.249
  C     -252.573    -121.714    -229.559
  C     -251.808    -122.634    -230.368
  O     -251.605    -122.527    -231.574
  N     -253.158    -120.516    -229.877
  C     -253.774    -120.153    -228.770
  N     -253.609    -121.064    -227.756
  O     -257.587    -115.813    -227.623
  O     -256.347    -116.485    -229.778
  H     -253.216    -121.449    -224.064
  H     -257.702    -114.982    -228.125
  H     -250.800    -124.384    -230.152
  H     -254.364    -119.259    -228.655
  H     -254.195    -122.094    -226.073
  H     -252.533    -119.858    -225.649
  H     -250.544    -125.725    -228.255
  H     -254.172    -118.295    -226.520
  H     -251.333    -125.257    -226.784
  H     -256.270    -119.756    -224.834
  H     -257.681    -119.190    -226.887
  H     -257.245    -117.817    -225.840
  P     -253.615    -116.629    -224.593
  C     -254.318    -116.108    -222.152
  O     -253.273    -116.170    -223.100
  O     -254.694    -115.550    -225.093
  O     -252.451    -116.699    -225.523
  H     -254.263    -114.919    -225.695
  H     -253.905    -116.305    -221.158
  H     -255.102    -116.842    -222.364
  H     -254.754    -115.106    -222.158
  H     -259.616    -118.641    -230.346
  H     -257.894    -118.731    -230.633
  H     -258.737    -117.215    -230.844

 3  4  5  6  7  8  9  10  11  12  23  26  30  31 0
 6-311+G(2d,p)
 ****
 33  35  36  37  38 0
 6-311+G(2d,p)
 ****
 1  2  13  14  15  16  17  18  19  20  21  22  24  25 0
 3-21G
 ****
 27  28  29  32  34  39  40  41  42  43  44  45  46  47  48  49 0
 3-21G
 ****


