%nproc=1
%NoSave
%Mem=1900MB
#P OB98/GEN NMR

erre ene a

0 1
  C      347.935    -120.321    -300.306
  O      348.765    -121.426    -300.618
  H      348.011    -120.120    -299.233
  H      346.890    -120.547    -300.549
  H      348.266    -119.436    -300.857
  P      348.766    -121.914    -302.147
  C      347.228    -123.465    -303.517
  O      347.394    -122.738    -302.303
  C      346.170    -124.558    -303.347
  O      346.774    -125.671    -302.631
  C      344.947    -124.100    -302.551
  O      343.770    -124.699    -303.110
  C      345.189    -124.675    -301.162
  O      343.976    -124.878    -300.439
  C      345.955    -125.959    -301.483
  N      346.808    -129.744    -298.169
  C      346.008    -129.660    -299.253
  N      345.854    -128.607    -300.097
  C      346.670    -127.597    -299.751
  C      347.536    -127.541    -298.669
  C      347.587    -128.683    -297.850
  N      348.385    -128.775    -296.729
  N      348.169    -126.317    -298.622
  C      347.706    -125.647    -299.666
  N      346.783    -126.377    -300.367
  O      349.999    -122.628    -302.598
  O      348.440    -120.551    -302.921
  H      343.493    -124.023    -300.401
  H      347.726    -120.052    -302.483
  H      345.410    -130.542    -299.473
  H      347.995    -124.632    -299.945
  H      345.286    -126.795    -301.726
  H      345.816    -123.982    -300.585
  H      344.839    -123.016    -302.529
  H      345.889    -124.931    -304.337
  H      348.179    -123.913    -303.821
  H      348.370    -129.635    -296.202
  H      348.982    -127.998    -296.483
  H      346.914    -122.753    -304.294
  P      343.075    -123.973    -304.363
  C      341.633    -121.867    -304.754
  O      342.553    -122.527    -303.892
  O      342.087    -124.793    -305.122
  O      344.331    -123.594    -305.288
  H      344.084    -123.707    -306.228
  H      341.364    -120.921    -304.332
  H      340.756    -122.469    -304.868
  H      342.087    -121.714    -305.711

 6  7  8  9  10  11  12  13  14  15  25  28  32  33  34  35 0
 6-311+G(2d,p)
 ****
 36  39  40 0
 6-311+G(2d,p)
 ****
 1  2  3  4  5  16  17  18  19  20  21  22  23  24 0
 3-21G
 ****
 26  27  29  30  31  37  38  41  42  43  44  45  46  47 0
 3-21G
 ****
 48 0
 3-21G
 ****


