%nproc=1
%NoSave
%Mem=1900MB
#P OB98/GEN NMR

erre ene a

0 1
  C      -86.023    -392.335     223.998
  O      -85.156    -391.322     223.543
  P      -84.436    -391.341     222.120
  C      -82.459    -392.701     221.078
  O      -83.509    -392.650     222.037
  C      -81.358    -393.666     221.522
  O      -80.829    -393.217     222.798
  C      -81.912    -395.090     221.752
  O      -81.063    -396.126     221.269
  C      -82.234    -395.090     223.242
  O      -82.337    -396.396     223.801
  C      -81.122    -394.211     223.803
  N      -82.003    -394.719     228.783
  C      -81.462    -395.629     227.903
  N      -81.311    -396.892     228.358
  N      -81.139    -395.337     226.667
  C      -81.459    -394.070     226.309
  C      -81.993    -393.075     227.100
  C      -82.307    -393.404     228.471
  O      -82.891    -392.659     229.259
  N      -82.239    -391.933     226.377
  C      -81.885    -392.246     225.152
  N      -81.436    -393.542     225.048
  O      -83.868    -390.045     221.638
  O      -85.663    -391.733     221.141
  H      -81.449    -396.793     223.797
  H      -85.509    -391.268     220.289
  H      -82.302    -395.024     229.702
  H      -81.963    -391.583     224.292
  H      -80.213    -394.785     223.989
  H      -83.214    -394.617     223.365
  H      -81.689    -397.181     229.259
  H      -82.836    -395.232     221.187
  H      -81.161    -397.623     227.676
  H      -80.535    -393.652     220.792
  H      -82.058    -391.685     221.006
  H      -82.847    -392.979     220.094
  P      -81.448    -397.632     220.879
  C      -80.313    -399.889     221.302
  O      -80.650    -398.632     221.845
  O      -80.757    -397.885     219.460
  O      -82.919    -397.903     220.792
  H      -81.354    -398.411     218.896
  H      -80.029    -400.565     222.119
  H      -79.465    -399.786     220.624
  H      -81.164    -400.324     220.769
  H      -86.374    -392.090     224.979
  H      -85.498    -393.267     224.030
  H      -86.856    -392.418     223.331

 3  4  5  6  7  8  9  10  11  12  23  26  30  31 0
 6-311+G(2d,p)
 ****
 33  35  36  37  38 0
 6-311+G(2d,p)
 ****
 1  2  13  14  15  16  17  18  19  20  21  22  24  25 0
 3-21G
 ****
 27  28  29  32  34  39  40  41  42  43  44  45  46  47  48  49 0
 3-21G
 ****


