%nproc=1
%NoSave
%Mem=1900MB
#P OB98/GEN NMR

erre ene a

0 1
  C       -9.352      76.714     375.007
  O       -8.880      76.109     376.194
  H      -10.006      76.009     374.490
  H       -8.511      76.956     374.354
  H       -9.920      77.621     375.236
  P       -8.091      77.042     377.232
  C       -5.952      76.864     375.764
  O       -6.884      77.716     376.412
  C       -5.328      77.585     374.569
  O       -4.517      78.688     375.066
  C       -4.418      76.697     373.710
  O       -4.568      77.089     372.341
  C       -3.027      77.071     374.186
  O       -2.003      76.803     373.238
  C       -3.210      78.565     374.470
  N       -2.177      79.100     375.354
  C       -1.008      79.565     374.762
  O       -0.815      79.636     373.550
  N       -0.024      79.962     375.632
  C       -0.086      79.919     376.993
  O        0.838      80.270     377.718
  C       -1.343      79.410     377.559
  C       -2.314      79.028     376.727
  O       -7.351      75.982     378.175
  O       -8.933      78.004     378.000
  H       -7.919      75.746     378.932
  H       -1.200      77.281     373.531
  H        0.830      80.301     375.219
  H       -1.425      79.351     378.636
  H       -3.246      78.628     377.111
  H       -3.224      79.133     373.533
  H       -2.788      76.526     375.106
  H       -4.614      75.625     373.812
  H       -6.131      78.024     373.965
  H       -6.466      75.966     375.408
  H       -5.176      76.568     376.479
  P       -5.504      76.176     371.411
  C       -3.782      74.278     370.868
  O       -4.945      74.682     371.575
  O       -5.024      76.624     369.955
  O       -6.957      76.362     371.687
  H       -4.074      76.827     369.913
  H       -3.561      73.257     371.099
  H       -2.957      74.896     371.156
  H       -3.952      74.377     369.816

 6  7  8  9  10  11  12  13  14  15  16  27  31  32  33  34  35 0
 6-311+G(2d,p)
 ****
 36  37 0
 6-311+G(2d,p)
 ****
 1  2  3  4  5  17  18  19  20  21  22  23  24  25 0
 3-21G
 ****
 26  28  29  30  38  39  40  41  42  43  44  45 0
 3-21G
 ****


