%nproc=1
%NoSave
%Mem=1900MB
#P OB98/GEN NMR

erre ene a

0 1
  C     -643.501     318.311    -786.595
  O     -643.209     317.299    -785.646
  H     -642.661     318.397    -787.278
  H     -643.646     319.270    -786.093
  H     -644.400     318.053    -787.168
  P     -644.302     316.981    -784.515
  C     -643.279     317.692    -782.247
  O     -644.073     318.084    -783.368
  C     -641.797     317.846    -782.574
  O     -641.548     319.139    -783.165
  C     -640.877     317.744    -781.353
  O     -640.652     316.384    -781.022
  C     -639.636     318.447    -781.882
  O     -638.918     317.562    -782.768
  C     -640.267     319.614    -782.686
  N     -638.055     323.687    -780.618
  C     -637.491     322.612    -781.275
  N     -636.149     322.605    -781.372
  N     -638.186     321.626    -781.793
  C     -639.512     321.731    -781.569
  C     -640.193     322.734    -780.903
  C     -639.409     323.850    -780.390
  O     -639.879     324.827    -779.810
  N     -641.533     322.466    -780.803
  C     -641.673     321.321    -781.453
  N     -640.471     320.821    -781.906
  O     -644.345     315.572    -784.006
  O     -645.691     317.431    -785.176
  H     -638.173     318.071    -783.130
  H     -646.126     316.680    -785.619
  H     -637.463     324.409    -780.225
  H     -642.626     320.808    -781.594
  H     -639.662     319.883    -783.563
  H     -638.956     318.751    -781.100
  H     -635.565     323.166    -780.771
  H     -641.272     318.318    -780.504
  H     -635.708     321.804    -781.823
  H     -641.531     317.092    -783.333
  H     -643.516     316.643    -782.026
  H     -643.533     318.297    -781.371
  P     -640.064     315.970    -779.574
  C     -637.592     315.202    -779.747
  O     -638.493     316.305    -779.670
  O     -640.381     314.575    -779.147
  O     -640.603     317.108    -778.585
  H     -641.484     316.884    -778.195
  H     -636.587     315.566    -779.806
  H     -637.813     314.621    -780.618
  H     -637.700     314.592    -778.875

 6  7  8  9  10  11  12  13  14  15  26  29  33  34 0
 6-311+G(2d,p)
 ****
 36  38  39  40  41 0
 6-311+G(2d,p)
 ****
 1  2  3  4  5  16  17  18  19  20  21  22  23  24  25 0
 3-21G
 ****
 27  28  30  31  32  35  37  42  43  44  45  46  47 0
 3-21G
 ****
 48  49 0
 3-21G
 ****


