%nproc=1
%NoSave
%Mem=1900MB
#P OB98/GEN NMR

erre ene a

0 1
  C      183.496    -150.403     192.439
  O      184.410    -149.634     191.687
  H      182.768    -149.731     192.899
  H      184.029    -150.940     193.229
  H      182.963    -151.117     191.806
  P      185.355    -150.376     190.631
  C      185.974    -148.164     189.454
  O      186.451    -149.309     190.145
  C      185.289    -147.185     190.415
  O      186.177    -146.888     191.520
  C      185.000    -145.858     189.707
  O      183.864    -145.194     190.253
  C      186.246    -145.039     190.005
  O      186.032    -143.636     189.885
  C      186.569    -145.506     191.423
  N      190.246    -142.457     193.194
  C      188.941    -142.150     192.862
  N      188.574    -140.857     193.002
  N      188.081    -143.029     192.421
  C      188.608    -144.268     192.261
  C      189.891    -144.687     192.530
  C      190.822    -143.713     193.056
  O      191.995    -143.924     193.349
  N      190.059    -146.015     192.224
  C      188.885    -146.396     191.763
  N      187.966    -145.374     191.779
  O      184.426    -150.534     189.334
  O      185.911    -151.697     191.071
  H      186.792    -143.187     190.302
  H      184.729    -151.282     188.789
  H      190.863    -141.745     193.544
  H      188.647    -147.393     191.414
  H      185.986    -144.938     192.160
  H      187.017    -145.312     189.279
  H      189.243    -140.121     193.166
  H      184.853    -145.989     188.634
  H      187.734    -140.565     192.495
  H      184.390    -147.641     190.842
  H      185.258    -148.513     188.702
  H      186.794    -147.673     188.924
  P      182.784    -144.607     189.225
  C      180.626    -145.167     190.609
  O      181.487    -144.183     190.066
  O      182.314    -145.892     188.399
  O      183.321    -143.534     188.339
  H      182.703    -145.879     187.505
  H      179.824    -144.690     191.132
  H      181.175    -145.786     191.287
  H      180.229    -145.769     189.818

 6  7  8  9  10  11  12  13  14  15  26  29  33  34 0
 6-311+G(2d,p)
 ****
 36  38  39  40  41 0
 6-311+G(2d,p)
 ****
 1  2  3  4  5  16  17  18  19  20  21  22  23  24  25 0
 3-21G
 ****
 27  28  30  31  32  35  37  42  43  44  45  46  47 0
 3-21G
 ****
 48  49 0
 3-21G
 ****


