%nproc=1
%NoSave
%Mem=1900MB
#P OB98/GEN NMR

erre ene a

0 1
  C     -513.049     563.903     186.180
  O     -513.422     565.190     186.598
  P     -514.701     565.960     186.042
  C     -516.294     564.467     187.496
  O     -515.991     565.010     186.214
  C     -517.736     564.812     187.921
  O     -518.652     564.191     186.969
  C     -518.061     564.243     189.307
  O     -518.807     565.139     190.127
  C     -518.700     562.893     188.987
  O     -519.489     562.373     190.045
  C     -519.431     563.199     187.678
  N     -522.134     558.987     186.802
  C     -522.408     560.015     187.673
  N     -523.404     559.823     188.554
  N     -521.709     561.129     187.699
  C     -520.650     561.138     186.866
  C     -520.306     560.174     185.945
  C     -521.084     558.967     185.892
  O     -520.821     557.976     185.208
  N     -519.134     560.500     185.294
  C     -518.770     561.649     185.833
  N     -519.640     562.057     186.814
  O     -514.541     566.696     184.748
  O     -514.951     567.061     187.204
  H     -518.872     562.041     190.723
  H     -515.291     567.863     186.768
  H     -522.665     558.114     186.888
  H     -517.879     562.201     185.573
  H     -520.417     563.629     187.865
  H     -517.877     562.187     188.821
  H     -523.847     558.926     188.643
  H     -517.148     564.089     189.881
  H     -523.466     560.439     189.353
  H     -517.886     565.901     187.850
  H     -515.581     564.918     188.192
  H     -516.132     563.394     187.497
  P     -518.750     565.338     191.709
  C     -517.813     567.723     191.485
  O     -517.620     566.436     192.032
  O     -518.118     563.996     192.279
  O     -520.061     565.598     192.366
  H     -518.548     563.742     193.113
  H     -516.863     568.274     191.531
  H     -518.571     568.254     192.040
  H     -518.119     567.645     190.427
  H     -512.160     563.604     186.695
  H     -512.865     563.910     185.126
  H     -513.838     563.214     186.400

 3  4  5  6  7  8  9  10  11  12  23  26  30  31 0
 6-311+G(2d,p)
 ****
 33  35  36  37  38 0
 6-311+G(2d,p)
 ****
 1  2  13  14  15  16  17  18  19  20  21  22  24  25 0
 3-21G
 ****
 27  28  29  32  34  39  40  41  42  43  44  45  46  47  48  49 0
 3-21G
 ****


