%nproc=1
%NoSave
%Mem=1900MB
#P OB98/GEN NMR

erre ene a

0 1
  C      885.371    -418.634     996.192
  O      884.553    -417.511     995.900
  H      886.060    -418.790     995.345
  H      884.751    -419.531     996.298
  H      885.952    -418.459     997.093
  P      883.448    -417.132     997.001
  C      884.581    -415.782     998.911
  O      883.924    -415.738     997.646
  C      885.752    -414.800     998.934
  O      886.782    -415.211     998.000
  C      885.383    -413.366     998.562
  O      884.855    -412.673     999.686
  C      886.730    -412.803     998.113
  O      887.544    -412.429     999.243
  C      887.339    -414.021     997.384
  N      888.924    -412.285     992.914
  C      889.456    -412.118     994.159
  N      890.555    -411.338     994.260
  N      888.971    -412.655     995.256
  C      887.859    -413.401     995.010
  C      887.228    -413.661     993.808
  C      887.809    -413.063     992.616
  O      887.422    -413.229     991.472
  N      886.135    -414.464     993.974
  C      886.076    -414.671     995.280
  N      887.084    -414.029     995.953
  O      883.724    -418.189     998.178
  O      882.041    -417.181     996.532
  H      888.351    -412.000     998.923
  H      882.878    -418.381     998.635
  H      889.362    -411.853     992.115
  H      885.319    -415.273     995.775
  H      888.423    -414.063     997.512
  H      886.605    -411.925     997.499
  H      890.766    -410.638     993.550
  H      884.684    -413.344     997.714
  H      890.945    -411.184     995.183
  H      886.202    -414.838     999.945
  H      884.964    -416.793     999.072
  H      883.866    -415.532     999.694
  P      883.688    -411.596     999.409
  C      881.565    -412.978    1000.007
  O      882.479    -411.946    1000.396
  O      883.121    -412.022     997.971
  O      884.133    -410.170     999.424
  H      882.601    -411.295     997.581
  H      880.817    -413.096    1000.763
  H      882.097    -413.898     999.885
  H      881.098    -412.711     999.082

 6  7  8  9  10  11  12  13  14  15  26  29  33  34 0
 6-311+G(2d,p)
 ****
 36  38  39  40  41 0
 6-311+G(2d,p)
 ****
 1  2  3  4  5  16  17  18  19  20  21  22  23  24  25 0
 3-21G
 ****
 27  28  30  31  32  35  37  42  43  44  45  46  47 0
 3-21G
 ****
 48  49 0
 3-21G
 ****


