%nproc=1
%NoSave
%Mem=1900MB
#P OB98/GEN NMR

erre ene a

0 1
  C      353.564    -254.492     -33.895
  O      353.687    -253.993     -35.208
  P      352.645    -252.991     -35.876
  C      350.349    -253.279     -37.096
  O      351.273    -253.778     -36.136
  C      349.087    -254.152     -37.149
  O      349.439    -255.440     -37.721
  C      348.528    -254.424     -35.743
  O      347.111    -254.352     -35.654
  C      349.184    -255.748     -35.370
  O      348.510    -256.445     -34.329
  C      349.239    -256.457     -36.719
  N      351.089    -260.903     -35.091
  C      349.845    -260.347     -34.869
  N      349.071    -260.964     -33.953
  N      349.426    -259.259     -35.467
  C      350.352    -258.687     -36.266
  C      351.615    -259.146     -36.566
  C      352.054    -260.367     -35.925
  O      353.190    -260.837     -36.006
  N      352.300    -258.271     -37.367
  C      351.468    -257.262     -37.524
  N      350.284    -257.454     -36.850
  O      353.166    -252.111     -36.967
  O      352.258    -252.042     -34.627
  H      349.071    -257.196     -34.065
  H      352.096    -251.144     -34.987
  H      351.387    -261.698     -34.539
  H      351.679    -256.361     -38.091
  H      348.304    -256.970     -36.941
  H      350.191    -255.524     -35.001
  H      349.424    -261.716     -33.372
  H      348.867    -253.655     -35.041
  H      348.273    -260.447     -33.593
  H      348.348    -253.682     -37.809
  H      350.867    -253.306     -38.061
  H      350.092    -252.239     -36.880
  P      346.202    -254.022     -34.385
  C      345.034    -255.403     -32.566
  O      346.128    -255.327     -33.455
  O      344.713    -253.911     -34.958
  O      346.571    -252.768     -33.660
  H      344.245    -253.183     -34.507
  H      345.240    -256.170     -31.816
  H      344.130    -255.680     -33.116
  H      344.876    -254.445     -32.059
  H      354.386    -255.143     -33.682
  H      352.646    -255.035     -33.804
  H      353.566    -253.677     -33.202

 3  4  5  6  7  8  9  10  11  12  23  26  30  31 0
 6-311+G(2d,p)
 ****
 33  35  36  37  38 0
 6-311+G(2d,p)
 ****
 1  2  13  14  15  16  17  18  19  20  21  22  24  25 0
 3-21G
 ****
 27  28  29  32  34  39  40  41  42  43  44  45  46  47  48  49 0
 3-21G
 ****


