%nproc=1
%NoSave
%Mem=1900MB
#P OB98/GEN NMR

erre ene a

0 1
  C     -402.729    -229.377     -82.742
  O     -403.816    -228.801     -83.441
  H     -402.987    -230.381     -82.401
  H     -401.873    -229.439     -83.416
  H     -402.463    -228.750     -81.886
  P     -405.209    -228.722     -82.650
  C     -407.100    -230.082     -83.785
  O     -405.970    -230.110     -82.924
  C     -406.651    -230.049     -85.242
  O     -405.777    -231.163     -85.523
  C     -407.779    -230.163     -86.261
  O     -408.463    -228.930     -86.436
  C     -406.995    -230.552     -87.504
  O     -406.408    -229.381     -88.097
  C     -405.898    -231.460     -86.934
  N     -403.922    -236.037     -88.194
  C     -403.372    -234.801     -88.138
  N     -403.959    -233.632     -87.807
  C     -405.250    -233.814     -87.492
  C     -405.950    -235.015     -87.504
  C     -405.234    -236.164     -87.881
  N     -405.809    -237.415     -87.954
  N     -407.259    -234.820     -87.111
  C     -407.350    -233.529     -86.868
  N     -406.166    -232.879     -87.091
  O     -406.060    -227.659     -83.496
  O     -405.108    -228.318     -81.214
  H     -405.796    -229.006     -87.437
  H     -406.609    -227.135     -82.885
  H     -402.316    -234.746     -88.389
  H     -408.248    -233.029     -86.523
  H     -404.921    -231.245     -87.391
  H     -407.613    -231.029     -88.274
  H     -408.470    -230.975     -86.002
  H     -406.081    -229.124     -85.396
  H     -407.701    -229.190     -83.574
  H     -405.207    -238.219     -88.037
  H     -406.789    -237.500     -87.712
  H     -407.708    -230.978     -83.595
  P     -410.003    -228.995     -86.902
  C     -410.438    -228.074     -89.287
  O     -409.966    -229.159     -88.493
  O     -410.504    -227.491     -86.695
  O     -410.845    -229.976     -86.155
  H     -411.475    -227.482     -86.552
  H     -410.353    -228.327     -90.323
  H     -409.853    -227.202     -89.083
  H     -411.463    -227.879     -89.051

 6  7  8  9  10  11  12  13  14  15  25  28  32  33  34  35 0
 6-311+G(2d,p)
 ****
 36  39  40 0
 6-311+G(2d,p)
 ****
 1  2  3  4  5  16  17  18  19  20  21  22  23  24 0
 3-21G
 ****
 26  27  29  30  31  37  38  41  42  43  44  45  46  47  48 0
 3-21G
 ****


