%nproc=1
%NoSave
%Mem=1900MB
#P OB98/GEN NMR

erre ene a

0 1
  C     -896.660    -792.296    -898.430
  O     -896.630    -791.058    -897.750
  H     -895.640    -792.627    -898.570
  H     -897.170    -792.173    -899.390
  H     -897.190    -793.058    -897.840
  P     -898.000    -790.492    -897.120
  C     -897.320    -789.939    -894.690
  O     -897.980    -790.848    -895.560
  C     -896.070    -790.562    -894.060
  O     -895.110    -790.863    -895.150
  C     -895.350    -789.605    -893.090
  O     -894.610    -790.293    -892.080
  C     -894.380    -788.849    -894.010
  O     -893.270    -788.297    -893.310
  C     -893.990    -789.984    -894.990
  N     -890.090    -788.634    -898.000
  C     -890.080    -788.919    -896.620
  N     -888.910    -788.819    -895.980
  N     -891.180    -789.218    -895.920
  C     -892.290    -789.205    -896.720
  C     -892.430    -788.936    -898.070
  C     -891.220    -788.631    -898.790
  O     -891.150    -788.344    -900.000
  N     -893.730    -789.021    -898.470
  C     -894.380    -789.307    -897.390
  N     -893.570    -789.488    -896.270
  O     -899.120    -791.488    -897.690
  O     -898.320    -789.066    -897.430
  H     -892.840    -787.658    -893.910
  H     -900.000    -791.051    -897.660
  H     -889.220    -788.427    -898.450
  H     -895.480    -789.468    -897.320
  H     -893.150    -790.560    -894.560
  H     -894.910    -788.039    -894.500
  H     -888.100    -788.362    -896.440
  H     -896.050    -788.881    -892.630
  H     -888.950    -788.686    -894.980
  H     -896.330    -791.517    -893.590
  H     -898.040    -789.675    -893.900
  H     -897.080    -789.010    -895.220
  P     -895.360    -790.647    -890.710
  C     -894.790    -793.224    -890.340
  O     -895.730    -792.204    -890.700
  O     -896.800    -789.928    -890.850
  O     -894.660    -790.204    -889.480
  H     -896.910    -789.228    -890.170
  H     -895.261    -794.183    -890.407
  H     -894.453    -793.061    -889.338
  H     -893.954    -793.190    -891.007

 6  7  8  9  10  11  12  13  14  15  26  29  33  34 0
 6-311+G(2d,p)
 ****
 36  38  39  40  41 0
 6-311+G(2d,p)
 ****
 1  2  3  4  5  16  17  18  19  20  21  22  23  24  25 0
 3-21G
 ****
 27  28  30  31  32  35  37  42  43  44  45  46  47 0
 3-21G
 ****
 48  49 0
 3-21G
 ****


