%nproc=1
%NoSave
%Mem=1900MB
#P OB98/GEN NMR

erre ene a

0 1
  C      228.926     137.365      31.321
  O      230.146     136.654      31.335
  H      229.143     138.431      31.431
  H      228.293     137.052      32.155
  H      228.400     137.212      30.375
  P      230.102     135.058      31.191
  C      232.499     135.129      30.209
  O      231.650     134.618      31.224
  C      233.559     136.040      30.817
  O      234.306     135.363      31.850
  C      234.622     136.530      29.839
  O      234.159     137.522      28.938
  C      235.648     137.072      30.816
  O      235.200     138.336      31.336
  C      235.626     135.975      31.905
  N      236.668     134.966      31.711
  C      237.983     135.434      31.633
  O      238.230     136.638      31.715
  N      238.997     134.528      31.430
  C      238.718     133.267      31.290
  N      239.759     132.415      31.080
  C      237.343     132.735      31.346
  C      236.380     133.629      31.560
  O      229.307     134.524      30.043
  O      229.593     134.541      32.616
  H      235.307     138.989      30.619
  H      229.536     133.554      32.577
  H      237.158     131.684      31.195
  H      235.342     133.314      31.605
  H      235.738     136.414      32.904
  H      236.629     137.237      30.365
  H      235.071     135.688      29.295
  H      233.036     136.880      31.294
  H      240.689     132.812      31.048
  H      231.881     135.671      29.486
  H      239.627     131.433      30.888
  H      233.006     134.304      29.695
  P      234.395     137.250      27.369
  C      232.752     139.265      27.122
  O      233.868     138.554      26.605
  O      233.307     136.129      27.030
  O      235.784     136.837      26.999
  H      233.718     135.241      27.022
  H      232.539     140.102      26.491
  H      232.976     139.611      28.109
  H      231.901     138.617      27.155

 6  7  8  9  10  11  12  13  14  15  16  26  30  31  32  33  35 0
 6-311+G(2d,p)
 ****
 37  38 0
 6-311+G(2d,p)
 ****
 1  2  3  4  5  17  18  19  20  21  22  23  24  25 0
 3-21G
 ****
 27  28  29  34  36  39  40  41  42  43  44  45  46 0
 3-21G
 ****


