%nproc=1
%NoSave
%Mem=1900MB
#P OB98/GEN NMR

erre ene a

0 1
  C       -0.931     -92.070      44.978
  O       -0.072     -91.068      44.474
  H       -0.392     -93.021      44.986
  H       -1.809     -92.174      44.335
  H       -1.244     -91.837      45.999
  P       -0.566     -89.544      44.498
  C        0.479     -89.156      42.172
  O        0.405     -88.723      43.524
  C        0.582     -87.947      41.245
  O       -0.541     -87.063      41.453
  C        1.825     -87.098      41.477
  O        2.973     -87.710      40.923
  C        1.411     -85.797      40.808
  O        1.587     -85.871      39.386
  C       -0.087     -85.718      41.177
  N       -0.347     -84.830      42.308
  C       -0.528     -83.483      42.011
  O       -0.445     -83.026      40.871
  N       -0.779     -82.664      43.080
  C       -0.754     -83.033      44.393
  O       -0.897     -82.241      45.319
  C       -0.534     -84.463      44.650
  C       -0.345     -85.283      43.614
  O       -0.755     -88.947      45.852
  O       -1.944     -89.582      43.680
  H        1.156     -86.699      39.098
  H       -2.692     -89.514      44.302
  H       -0.899     -81.683      42.886
  H       -0.522     -84.796      45.678
  H       -0.175     -86.339      43.783
  H       -0.671     -85.360      40.320
  H        1.996     -84.948      41.160
  H        1.962     -86.917      42.548
  H        0.541     -88.305      40.207
  H       -0.427     -89.722      41.933
  H        1.349     -89.811      42.055
  P        4.043     -88.415      41.881
  C        5.775     -86.523      41.718
  O        5.499     -87.895      41.455
  O        3.912     -89.897      42.005
  O        3.809     -87.706      43.297
  H        3.548     -88.378      43.956
  H        6.768     -86.291      41.394
  H        5.689     -86.337      42.768
  H        5.075     -85.911      41.189

 6  7  8  9  10  11  12  13  14  15  16  26  31  32  33  34  35 0
 6-311+G(2d,p)
 ****
 36  37 0
 6-311+G(2d,p)
 ****
 1  2  3  4  5  17  18  19  20  21  22  23  24  25 0
 3-21G
 ****
 27  28  29  30  38  39  40  41  42  43  44  45 0
 3-21G
 ****


