%nproc=1
%NoSave
%Mem=1900MB
#P OB98/GEN NMR

erre ene a

0 1
  C      -76.508      53.495     117.657
  O      -77.123      54.306     116.672
  P      -77.835      55.656     117.179
  C      -79.939      56.150     118.644
  O      -79.195      55.204     117.893
  C      -81.392      55.686     118.761
  O      -81.446      54.297     119.144
  C      -82.210      56.445     119.797
  O      -82.671      57.673     119.263
  C      -83.322      55.447     120.097
  O      -84.349      55.505     119.089
  C      -82.573      54.109     120.043
  N      -83.711      51.254     124.055
  C      -84.500      51.644     122.990
  N      -85.763      51.165     122.971
  N      -84.089      52.429     122.029
  C      -82.809      52.840     122.186
  C      -81.933      52.536     123.202
  C      -82.385      51.626     124.230
  O      -81.697      51.173     125.139
  N      -80.726      53.161     123.031
  C      -80.863      53.816     121.896
  N      -82.100      53.638     121.332
  O      -78.315      56.344     115.820
  O      -76.973      56.555     118.008
  H      -83.939      55.664     118.220
  H      -77.686      57.037     115.541
  H      -84.077      50.634     124.756
  H      -80.093      54.413     121.431
  H      -83.191      53.308     119.620
  H      -83.811      55.650     121.053
  H      -86.156      50.577     123.689
  H      -81.615      56.617     120.702
  H      -86.358      51.444     122.200
  H      -81.853      55.775     117.769
  H      -79.910      57.117     118.136
  H      -79.487      56.257     119.636
  P      -83.335      58.720     120.281
  C      -84.990      58.517     122.271
  O      -84.476      57.939     121.086
  O      -84.150      59.704     119.315
  O      -82.357      59.471     121.121
  H      -84.113      60.612     119.669
  H      -86.028      58.200     122.393
  H      -84.954      59.610     122.236
  H      -84.407      58.164     123.123
  H      -76.075      52.635     117.191
  H      -77.241      53.183     118.371
  H      -75.743      54.055     118.153

 3  4  5  6  7  8  9  10  11  12  23  26  30  31 0
 6-311+G(2d,p)
 ****
 33  35  36  37  38 0
 6-311+G(2d,p)
 ****
 1  2  13  14  15  16  17  18  19  20  21  22  24  25 0
 3-21G
 ****
 27  28  29  32  34  39  40  41  42  43  44  45  46  47  48  49 0
 3-21G
 ****


