%nproc=1
%NoSave
%Mem=1900MB
#P OB98/GEN NMR

erre ene a

0 1
  C      274.282     259.572     248.058
  O      274.207     261.003     248.118
  P      273.001     261.801     248.811
  C      274.444     262.532     250.836
  O      273.274     261.848     250.394
  C      274.073     263.675     251.785
  O      273.291     263.172     252.896
  C      275.261     264.375     252.447
  O      275.965     265.209     251.550
  C      274.562     265.116     253.587
  O      274.030     266.374     253.142
  C      273.415     264.155     253.960
  N      273.607     263.508     255.249
  C      273.614     264.340     256.373
  O      273.543     265.566     256.244
  N      273.721     263.761     257.611
  C      273.904     262.482     257.718
  N      273.982     261.968     258.976
  C      274.043     261.589     256.546
  C      273.885     262.161     255.360
  O      271.645     261.282     248.451
  O      273.172     263.327     248.352
  H      272.306     263.774     248.364
  H      274.792     266.972     253.009
  H      274.239     260.534     256.681
  H      273.950     261.573     254.450
  H      272.458     264.694     253.962
  H      275.247     265.334     254.417
  H      275.938     263.618     252.870
  H      273.467     264.399     251.227
  H      273.873     262.598     259.755
  H      274.957     262.943     249.962
  H      274.111     260.983     259.165
  H      275.116     261.813     251.325
  P      277.339     265.851     252.076
  C      278.915     264.334     250.672
  O      278.477     264.730     251.955
  O      277.103     265.995     253.657
  O      277.688     267.169     251.458
  H      277.501     266.828     253.970
  H      279.944     263.986     250.746
  H      278.867     265.162     249.957
  H      278.284     263.517     250.313
  H      275.177     259.283     247.548
  H      273.432     259.192     247.531
  H      274.293     259.173     249.051

 3  4  5  6  7  8  9  10  11  12  13  24  27  28  29  30  32 0
 6-311+G(2d,p)
 ****
 34  35 0
 6-311+G(2d,p)
 ****
 1  2  14  15  16  17  18  19  20  21  22  23  25  26 0
 3-21G
 ****
 31  33  36  37  38  39  40  41  42  43  44  45  46 0
 3-21G
 ****


