%nproc=1
%NoSave
%Mem=1900MB
#P OB98/GEN NMR

erre ene a

0 1
  C     -172.597     258.848     -49.350
  O     -173.368     258.336     -48.281
  H     -171.694     259.335     -48.969
  H     -172.303     258.018     -49.998
  H     -173.190     259.561     -49.934
  P     -173.807     259.390     -47.154
  C     -172.308     258.880     -45.103
  O     -173.558     258.672     -45.740
  C     -172.501     259.060     -43.603
  O     -173.140     260.327     -43.329
  C     -173.389     258.010     -42.945
  O     -172.693     256.793     -42.713
  C     -173.738     258.713     -41.639
  O     -172.652     258.568     -40.703
  C     -173.861     260.182     -42.074
  N     -178.197     261.686     -39.766
  C     -176.992     261.315     -39.271
  N     -175.892     260.914     -39.940
  C     -176.108     260.940     -41.266
  C     -177.278     261.295     -41.918
  C     -178.362     261.676     -41.109
  N     -179.587     262.040     -41.622
  N     -177.120     261.211     -43.285
  C     -175.880     260.812     -43.462
  N     -175.226     260.624     -42.271
  O     -175.407     259.420     -47.274
  O     -173.221     260.754     -47.294
  H     -172.669     257.639     -40.399
  H     -175.721     260.327     -47.098
  H     -176.903     261.342     -38.188
  H     -175.412     260.646     -44.423
  H     -173.382     260.859     -41.356
  H     -174.635     258.316     -41.162
  H     -174.308     257.847     -43.524
  H     -171.510     259.077     -43.130
  H     -171.832     259.779     -45.511
  H     -180.254     262.487     -41.016
  H     -179.702     262.037     -42.633
  H     -171.660     258.018     -45.303
  P     -173.473     255.425     -43.032
  C     -173.775     254.590     -40.591
  O     -173.094     254.426     -41.832
  O     -172.665     254.830     -44.278
  O     -174.925     255.574     -43.334
  H     -173.244     254.241     -44.799
  H     -173.422     253.861     -39.892
  H     -174.826     254.461     -40.741
  H     -173.587     255.571     -40.208

 6  7  8  9  10  11  12  13  14  15  25  28  32  33  34  35 0
 6-311+G(2d,p)
 ****
 36  39  40 0
 6-311+G(2d,p)
 ****
 1  2  3  4  5  16  17  18  19  20  21  22  23  24 0
 3-21G
 ****
 26  27  29  30  31  37  38  41  42  43  44  45  46  47  48 0
 3-21G
 ****


