%nproc=1
%NoSave
%Mem=1900MB
#P OB98/GEN NMR

erre ene a

0 1
  C      -73.747    -127.058    -129.598
  O      -73.866    -127.017    -131.008
  H      -72.973    -126.350    -129.292
  H      -73.457    -128.060    -129.274
  H      -74.695    -126.772    -129.133
  P      -74.977    -127.975    -131.660
  C      -77.557    -128.021    -131.441
  O      -76.321    -127.623    -130.859
  C      -78.559    -128.406    -130.354
  O      -78.109    -129.572    -129.643
  C      -78.781    -127.334    -129.294
  O      -79.689    -126.346    -129.758
  C      -79.380    -128.166    -128.171
  O      -80.777    -128.406    -128.434
  C      -78.594    -129.486    -128.275
  N      -77.126    -130.301    -123.424
  C      -78.342    -130.076    -123.969
  N      -78.652    -129.825    -125.257
  C      -77.547    -129.818    -126.021
  C      -76.239    -130.035    -125.607
  C      -76.046    -130.295    -124.240
  N      -74.804    -130.536    -123.692
  N      -75.367    -129.950    -126.672
  C      -76.141    -129.741    -127.719
  N      -77.463    -129.617    -127.371
  O      -74.615    -129.418    -131.747
  O      -75.218    -127.248    -133.067
  H      -80.845    -128.788    -129.329
  H      -75.196    -126.282    -132.961
  H      -79.177    -130.103    -123.276
  H      -75.795    -129.689    -128.745
  H      -79.235    -130.356    -128.099
  H      -79.320    -127.662    -127.204
  H      -77.833    -126.903    -128.956
  H      -79.503    -128.670    -130.849
  H      -77.404    -128.862    -132.122
  H      -74.735    -130.543    -122.684
  H      -73.991    -130.408    -124.276
  H      -77.935    -127.171    -132.019
  P      -79.676    -124.869    -129.131
  C      -77.927    -123.008    -128.835
  O      -78.146    -124.382    -129.135
  O      -80.365    -124.737    -127.817
  O      -80.351    -123.951    -130.251
  H      -80.916    -123.271    -129.838
  H      -76.878    -122.799    -128.866
  H      -78.305    -122.792    -127.857
  H      -78.434    -122.400    -129.556

 6  7  8  9  10  11  12  13  14  15  25  28  32  33  34  35 0
 6-311+G(2d,p)
 ****
 36  39  40 0
 6-311+G(2d,p)
 ****
 1  2  3  4  5  16  17  18  19  20  21  22  23  24 0
 3-21G
 ****
 26  27  29  30  31  37  38  41  42  43  44  45  46  47 0
 3-21G
 ****
 48 0
 3-21G
 ****


