%nproc=1
%NoSave
%Mem=1900MB
#P OB98/GEN NMR

erre ene a

0 1
  C     1000.212    -898.963    -275.334
  O      999.515    -898.283    -276.364
  P      999.779    -896.693    -276.512
  C      997.456    -896.633    -277.764
  O      998.809    -896.193    -277.688
  C      996.735    -895.933    -278.904
  O      996.605    -894.503    -278.620
  C      997.450    -896.003    -280.246
  O      997.299    -897.273    -280.869
  C      996.806    -894.843    -280.998
  O      995.517    -895.243    -281.527
  C      996.624    -893.803    -279.898
  N      997.661    -892.763    -279.886
  C      997.335    -891.573    -280.546
  O      996.237    -891.403    -281.110
  N      998.315    -890.623    -280.580
  C      999.579    -890.753    -280.069
  O     1000.432    -889.873    -280.158
  C      999.867    -892.043    -279.420
  C      998.924    -892.983    -279.347
  O     1001.242    -896.703    -277.168
  O      999.659    -895.953    -275.212
  H     1001.411    -897.523    -277.676
  H      995.039    -894.403    -281.755
  H      998.087    -889.743    -281.013
  H     1000.872    -892.173    -279.015
  H      999.125    -893.933    -278.876
  H      995.647    -893.323    -279.970
  H      997.410    -894.503    -281.852
  H      998.527    -895.803    -280.124
  H      995.722    -896.353    -278.995
  H      996.958    -896.393    -276.826
  H      997.431    -897.733    -277.906
  P      998.473    -898.343    -280.666
  C      998.864    -898.293    -283.250
  O      998.671    -899.063    -282.087
  O      997.738    -899.463    -279.767
  O      999.712    -897.763    -280.053
  H      996.844    -899.643    -280.052
  H      999.330    -898.933    -284.013
  H      999.497    -897.443    -283.066
  H      997.886    -897.953    -283.617
  H      999.947    -900.000    -275.348
  H      999.949    -898.541    -274.387
  H     1001.266    -898.862    -275.490

 3  4  5  6  7  8  9  10  11  12  13  24  28  29  30  31  32 0
 6-311+G(2d,p)
 ****
 33  34 0
 6-311+G(2d,p)
 ****
 1  2  14  15  16  17  18  19  20  21  22  23  25  26  27 0
 3-21G
 ****
 35  36  37  38  39  40  41  42  43  44  45 0
 3-21G
 ****


