%nproc=1
%NoSave
%Mem=1900MB
#P OB98/GEN NMR

erre ene a

0 1
  C     -234.985    -208.648     451.011
  O     -236.319    -208.612     450.540
  H     -234.499    -207.703     450.758
  H     -234.443    -209.465     450.527
  H     -234.967    -208.777     452.097
  P     -237.268    -209.835     450.967
  C     -238.276    -210.267     453.352
  O     -238.020    -209.357     452.299
  C     -239.510    -209.837     454.150
  O     -239.228    -208.566     454.789
  C     -240.767    -209.661     453.295
  O     -241.898    -210.072     454.063
  C     -240.829    -208.160     453.069
  O     -242.148    -207.718     452.760
  C     -240.258    -207.634     454.396
  N     -239.737    -206.274     454.277
  C     -240.557    -205.242     454.740
  O     -241.669    -205.497     455.208
  N     -240.126    -203.945     454.628
  C     -238.999    -203.694     454.042
  N     -238.636    -202.386     453.936
  C     -238.118    -204.746     453.496
  C     -238.540    -206.000     453.655
  O     -236.202    -210.907     451.496
  O     -238.156    -210.337     449.878
  H     -242.469    -208.218     451.978
  H     -235.519    -210.521     452.069
  H     -237.191    -204.485     453.005
  H     -237.952    -206.837     453.293
  H     -241.028    -207.641     455.177
  H     -240.177    -207.877     452.235
  H     -240.725    -210.230     452.361
  H     -239.677    -210.566     454.952
  H     -239.281    -201.695     454.302
  H     -237.414    -210.327     454.023
  H     -237.811    -202.069     453.451
  H     -238.434    -211.259     452.914
  P     -242.485    -211.548     453.878
  C     -240.742    -213.462     453.896
  O     -241.560    -212.591     454.670
  O     -242.830    -211.939     452.482
  O     -243.813    -211.516     454.785
  H     -244.514    -211.996     454.304
  H     -240.182    -214.099     454.548
  H     -240.069    -212.883     453.299
  H     -241.360    -214.059     453.258

 6  7  8  9  10  11  12  13  14  15  16  26  30  31  32  33  35 0
 6-311+G(2d,p)
 ****
 37  38 0
 6-311+G(2d,p)
 ****
 1  2  3  4  5  17  18  19  20  21  22  23  24  25 0
 3-21G
 ****
 27  28  29  34  36  39  40  41  42  43  44  45  46 0
 3-21G
 ****


