%nproc=1
%NoSave
%Mem=1900MB
#P OB98/GEN NMR

erre ene a

0 1
  C      368.018      73.070    -155.153
  O      367.826      71.667    -155.096
  P      368.096      70.943    -153.688
  C      366.076      69.336    -153.997
  O      367.485      69.470    -153.830
  C      365.699      67.869    -154.172
  O      365.866      67.165    -152.926
  C      364.251      67.646    -154.576
  O      364.072      67.911    -155.953
  C      364.055      66.182    -154.198
  O      364.473      65.313    -155.265
  C      364.978      66.026    -152.966
  N      364.232      65.891    -151.726
  C      364.026      64.579    -151.278
  O      364.449      63.629    -151.938
  N      363.314      64.382    -150.122
  C      362.845      65.404    -149.474
  N      362.152      65.149    -148.331
  C      363.024      66.799    -149.921
  C      363.714      66.968    -151.047
  O      367.081      71.679    -152.697
  O      369.511      71.017    -153.212
  H      363.863      65.498    -156.010
  H      367.407      71.647    -151.779
  H      362.613      67.614    -149.345
  H      363.891      67.959    -151.448
  H      365.614      65.140    -153.077
  H      363.006      65.951    -153.993
  H      363.583      68.274    -153.977
  H      366.379      67.424    -154.910
  H      362.041      64.184    -148.053
  H      365.764      69.888    -154.888
  H      361.768      65.876    -147.743
  H      365.574      69.767    -153.126
  P      362.956      68.982    -156.367
  C      364.440      69.485    -158.396
  O      363.136      69.176    -157.947
  O      363.567      70.347    -155.790
  O      361.566      68.740    -155.881
  H      362.921      71.070    -155.893
  H      364.457      69.435    -159.487
  H      365.164      68.768    -157.998
  H      364.710      70.499    -158.085
  H      367.805      73.419    -156.142
  H      369.032      73.302    -154.904
  H      367.362      73.548    -154.457

 3  4  5  6  7  8  9  10  11  12  13  21  23  27  28  29  30  32 0
 6-311+G(2d,p)
 ****
 34  35 0
 6-311+G(2d,p)
 ****
 1  2  14  15  16  17  18  19  20  22  24  25  26 0
 3-21G
 ****
 31  33  36  37  38  39  40  41  42  43  44  45  46 0
 3-21G
 ****


