%nproc=1
%NoSave
%Mem=1900MB
#P OB98/GEN NMR

erre ene a

0 1
  C       19.232    -897.500     929.890
  O       20.380    -898.320     930.019
  H       18.939    -897.500     928.829
  H       19.458    -896.484     930.187
  H       18.398    -897.900     930.484
  P       20.928    -898.640     931.499
  C       23.345    -898.860     930.546
  O       22.479    -898.220     931.508
  C       24.454    -897.920     930.139
  O       23.928    -896.940     929.190
  C       25.066    -897.100     931.270
  O       25.935    -897.880     932.051
  C       25.724    -895.968     930.490
  O       27.012    -896.389     929.984
  C       24.718    -895.749     929.324
  N       23.890    -894.564     929.569
  C       24.479    -893.338     929.385
  O       25.671    -893.174     929.046
  N       23.703    -892.232     929.687
  C       22.466    -892.281     930.247
  O       21.904    -891.294     930.712
  C       21.857    -893.602     930.345
  C       22.568    -894.687     930.040
  O       20.635    -900.000     932.014
  O       20.254    -897.490     932.397
  H       19.505    -897.900     932.881
  H       27.577    -896.514     930.769
  H       24.147    -891.334     929.601
  H       20.823    -893.674     930.733
  H       22.155    -895.685     930.138
  H       25.276    -895.620     928.386
  H       25.887    -895.102     931.104
  H       24.257    -896.674     931.892
  H       25.240    -898.520     929.607
  H       22.736    -899.160     929.689
  H       23.760    -899.770     931.015
  P       25.981    -897.670     933.664
  C       28.415    -898.530     933.873
  O       27.517    -897.430     934.073
  O       25.270    -898.690     934.492
  O       25.330    -896.207     933.870
  H       24.648    -896.271     934.570
  H       29.400    -898.247     934.181
  H       28.428    -898.796     932.837
  H       28.087    -899.368     934.452

 6  7  8  9  10  11  12  13  14  15  16  27  31  32  33  34  35 0
 6-311+G(2d,p)
 ****
 36  37 0
 6-311+G(2d,p)
 ****
 1  2  3  4  5  17  18  19  20  21  22  23  24  25 0
 3-21G
 ****
 26  28  29  30  38  39  40  41  42  43  44  45 0
 3-21G
 ****


