%nproc=1
%NoSave
%Mem=1900MB
#P OB98/GEN NMR

erre ene a

0 1
  C      -63.244     136.243     -67.575
  O      -63.145     137.655     -67.456
  P      -61.824     138.252     -66.763
  C      -63.215     139.065     -64.727
  O      -62.131     138.267     -65.189
  C      -63.935     138.375     -63.573
  O      -64.195     136.996     -63.902
  C      -63.154     138.345     -62.268
  O      -63.269     139.558     -61.545
  C      -63.864     137.220     -61.533
  O      -65.094     137.707     -60.967
  C      -64.159     136.232     -62.667
  N      -63.128     131.332     -61.639
  C      -64.185     132.113     -61.331
  N      -64.380     133.413     -61.632
  C      -63.321     133.913     -62.290
  C      -62.158     133.248     -62.639
  C      -62.082     131.889     -62.297
  N      -61.016     131.087     -62.637
  N      -61.298     134.093     -63.304
  C      -61.931     135.244     -63.366
  N      -63.163     135.183     -62.776
  O      -61.876     139.801     -67.164
  O      -60.548     137.606     -67.179
  H      -64.877     138.523     -60.477
  H      -60.980     140.186     -67.125
  H      -64.984     131.626     -60.778
  H      -61.544     136.139     -63.833
  H      -65.135     135.749     -62.556
  H      -63.273     136.811     -60.708
  H      -62.106     138.067     -62.438
  H      -64.902     138.876     -63.430
  H      -63.922     139.218     -65.548
  H      -61.119     130.092     -62.520
  H      -60.339     131.453     -63.296
  H      -62.831     140.039     -64.409
  P      -61.918     140.397     -61.316
  C      -62.348     140.167     -58.765
  O      -61.435     140.025     -59.835
  O      -62.443     141.901     -61.188
  O      -60.909     140.235     -62.403
  H      -61.742     142.530     -61.444
  H      -61.979     139.594     -57.910
  H      -63.338     139.788     -59.036
  H      -62.422     141.219     -58.478
  H      -64.168     135.989     -68.052
  H      -63.211     135.800     -66.602
  H      -62.428     135.876     -68.161

 3  4  5  6  7  8  9  10  11  12  22  25  29  30  31  32 0
 6-311+G(2d,p)
 ****
 33  36  37 0
 6-311+G(2d,p)
 ****
 1  2  13  14  15  16  17  18  19  20  21  23  24  26 0
 3-21G
 ****
 27  28  34  35  38  39  40  41  42  43  44  45  46  47  48 0
 3-21G
 ****


