%nproc=1
%NoSave
%Mem=1900MB
#P OB98/GEN NMR

erre ene a

0 1
  C      461.019    -362.349    -524.515
  O      461.316    -362.642    -525.870
  P      460.516    -363.809    -526.627
  C      462.623    -365.072    -527.393
  O      461.437    -365.122    -526.602
  C      463.226    -366.462    -527.533
  O      463.574    -367.000    -526.241
  C      462.294    -367.482    -528.170
  O      462.210    -367.294    -529.570
  C      462.946    -368.790    -527.732
  O      464.044    -369.120    -528.606
  C      463.461    -368.434    -526.331
  N      461.940    -372.607    -523.823
  C      462.690    -372.448    -524.933
  N      463.022    -371.303    -525.562
  C      462.464    -370.246    -524.942
  C      461.644    -370.258    -523.823
  C      461.401    -371.507    -523.239
  N      460.688    -371.677    -522.072
  N      461.248    -368.975    -523.509
  C      461.804    -368.213    -524.429
  N      462.603    -368.925    -525.270
  O      459.967    -363.447    -527.960
  O      459.337    -364.181    -525.608
  H      463.659    -369.277    -529.497
  H      458.477    -364.025    -526.040
  H      463.090    -373.365    -525.364
  H      461.681    -367.134    -524.513
  H      464.466    -368.842    -526.156
  H      462.257    -369.633    -527.751
  H      461.299    -367.410    -527.711
  H      464.152    -366.369    -528.118
  H      463.337    -364.400    -526.898
  H      460.695    -372.592    -521.659
  H      460.551    -370.870    -521.473
  H      462.382    -364.653    -528.379
  P      460.990    -367.929    -530.385
  C      462.425    -369.286    -532.022
  O      461.488    -369.336    -530.964
  O      460.334    -367.026    -531.379
  O      459.956    -368.363    -529.238
  H      459.036    -368.285    -529.564
  H      461.909    -369.049    -532.953
  H      462.907    -370.259    -532.112
  H      463.198    -368.523    -531.821
  H      461.645    -361.549    -524.178
  H      461.196    -363.217    -523.915
  H      459.993    -362.059    -524.429

 3  4  5  6  7  8  9  10  11  12  22  25  29  30  31  32 0
 6-311+G(2d,p)
 ****
 33  36  37 0
 6-311+G(2d,p)
 ****
 1  2  13  14  15  16  17  18  19  20  21  23  24  26 0
 3-21G
 ****
 27  28  34  35  38  39  40  41  42  43  44  45  46  47  48 0
 3-21G
 ****


