%nproc=1
%NoSave
%Mem=1900MB
#P OB98/GEN NMR

erre ene a

0 1
  C     -451.955     416.275      91.153
  O     -450.771     416.980      90.816
  P     -449.454     416.678      91.685
  C     -448.526     417.665      93.903
  O     -449.674     417.359      93.121
  C     -448.929     418.098      95.315
  O     -449.394     419.476      95.267
  C     -450.048     417.255      95.947
  O     -449.769     417.187      97.350
  C     -451.277     418.102      95.671
  O     -452.398     417.766      96.467
  C     -450.701     419.500      95.887
  N     -454.724     422.560      96.663
  C     -454.106     421.667      97.469
  N     -453.031     420.893      97.195
  C     -452.592     421.120      95.946
  C     -453.130     421.983      95.006
  C     -454.249     422.729      95.409
  N     -454.887     423.635      94.583
  N     -452.426     421.920      93.821
  C     -451.474     421.036      94.041
  N     -451.521     420.542      95.317
  O     -448.352     417.615      91.000
  O     -449.031     415.244      91.714
  H     -453.174     418.299      96.201
  H     -447.483     417.168      90.964
  H     -454.524     421.556      98.465
  H     -450.742     420.712      93.316
  H     -450.564     419.726      96.953
  H     -451.574     417.962      94.626
  H     -450.103     416.240      95.542
  H     -448.034     418.077      95.947
  H     -447.980     418.488      93.434
  H     -455.790     423.965      94.893
  H     -454.654     423.596      93.596
  H     -447.866     416.793      93.930
  P     -449.639     415.748      98.048
  C     -451.383     414.018      98.797
  O     -451.133     415.160      98.007
  O     -449.500     416.168      99.588
  O     -448.546     414.872      97.539
  H     -450.200     416.787      99.855
  H     -452.453     413.789      98.753
  H     -451.105     414.207      99.839
  H     -450.823     413.162      98.409
  H     -452.746     416.573      90.497
  H     -452.227     416.497      92.164
  H     -451.785     415.223      91.052

 3  4  5  6  7  8  9  10  11  12  22  25  29  30  31  32 0
 6-311+G(2d,p)
 ****
 33  36  37 0
 6-311+G(2d,p)
 ****
 1  2  13  14  15  16  17  18  19  20  21  23  24  26 0
 3-21G
 ****
 27  28  34  35  38  39  40  41  42  43  44  45  46  47  48 0
 3-21G
 ****


