%nproc=1
%NoSave
%Mem=1900MB
#P OB98/GEN NMR

erre ene a

0 1
  C      835.984     918.400    -360.668
  O      836.207     917.130    -361.245
  H      836.251     919.164    -361.402
  H      836.615     918.524    -359.790
  H      834.935     918.531    -360.395
  P      835.626     915.830    -360.510
  C      834.265     915.228    -362.612
  O      834.231     915.485    -361.218
  C      832.921     914.688    -363.109
  O      832.743     913.334    -362.602
  C      831.717     915.511    -362.645
  O      830.703     915.400    -363.649
  C      831.286     914.765    -361.395
  O      829.966     915.087    -361.011
  C      831.518     913.314    -361.841
  N      831.585     912.384    -360.710
  C      830.568     911.441    -360.619
  O      829.618     911.394    -361.420
  N      830.631     910.582    -359.559
  C      831.566     910.606    -358.565
  O      831.554     909.830    -357.622
  C      832.606     911.654    -358.692
  C      832.560     912.476    -359.745
  O      835.569     915.909    -359.013
  O      836.574     914.640    -360.999
  H      829.895     916.047    -360.797
  H      836.641     913.954    -360.312
  H      829.895     909.888    -359.487
  H      833.351     911.714    -357.914
  H      833.309     913.254    -359.865
  H      830.712     912.978    -362.504
  H      831.936     915.017    -360.550
  H      831.950     916.555    -362.445
  H      832.951     914.613    -364.204
  H      835.056     914.487    -362.798
  H      834.513     916.150    -363.152
  P      830.143     916.686    -364.444
  C      831.660     916.350    -366.504
  O      831.284     917.217    -365.435
  O      829.553     917.739    -363.562
  O      829.039     916.097    -365.452
  H      828.360     916.772    -365.628
  H      832.425     916.816    -367.089
  H      830.808     916.154    -367.121
  H      832.029     915.429    -366.103

 6  7  8  9  10  11  12  13  14  15  16  26  31  32  33  34  35 0
 6-311+G(2d,p)
 ****
 36  37 0
 6-311+G(2d,p)
 ****
 1  2  3  4  5  17  18  19  20  21  22  23  24  25 0
 3-21G
 ****
 27  28  29  30  38  39  40  41  42  43  44  45 0
 3-21G
 ****


