%nproc=1
%NoSave
%Mem=1900MB
#P OB98/GEN NMR

erre ene a

0 1
  C       18.421     -49.766     -87.819
  O       19.322     -49.170     -86.910
  H       18.806     -49.628     -88.832
  H       17.439     -49.292     -87.751
  H       18.333     -50.838     -87.621
  P       18.961     -49.176     -85.349
  C       20.950     -49.458     -83.730
  O       20.230     -48.569     -84.577
  C       22.235     -49.927     -84.424
  O       22.925     -48.752     -84.916
  C       23.176     -50.679     -83.472
  O       23.575     -51.951     -83.975
  C       24.264     -49.652     -83.178
  O       25.511     -50.209     -82.821
  C       24.285     -48.793     -84.447
  N       24.798     -47.441     -84.236
  C       26.180     -47.275     -84.230
  O       27.000     -48.173     -84.401
  N       26.620     -45.992     -84.020
  C       25.838     -44.897     -83.807
  O       26.292     -43.773     -83.628
  C       24.387     -45.142     -83.796
  C       23.941     -46.382     -84.006
  O       18.463     -50.473     -84.807
  O       17.865     -48.018     -85.201
  H       25.747     -50.861     -83.515
  H       16.982     -48.418     -85.085
  H       27.619     -45.856     -84.030
  H       23.737     -44.296     -83.617
  H       22.877     -46.597     -84.007
  H       24.898     -49.261     -85.218
  H       23.935     -49.032     -82.336
  H       22.664     -50.928     -82.535
  H       21.963     -50.538     -85.292
  H       20.303     -50.313     -83.511
  H       21.200     -48.950     -82.792
  P       23.573     -53.309     -83.139
  C       23.316     -55.458     -84.632
  O       24.166     -54.474     -84.058
  O       22.319     -53.614     -82.392
  O       24.743     -53.087     -82.050
  H       24.470     -53.580     -81.251
  H       23.902     -56.143     -85.208
  H       22.597     -54.982     -85.266
  H       22.809     -55.989     -83.854

 6  7  8  9  10  11  12  13  14  15  16  26  31  32  33  34  35 0
 6-311+G(2d,p)
 ****
 36  37 0
 6-311+G(2d,p)
 ****
 1  2  3  4  5  17  18  19  20  21  22  23  24  25 0
 3-21G
 ****
 27  28  29  30  38  39  40  41  42  43  44  45 0
 3-21G
 ****


