%nproc=1
%NoSave
%Mem=1900MB
#P OB98/GEN NMR

erre ene a

0 1
  C     -552.390     224.812     365.848
  O     -553.408     223.878     366.167
  H     -551.558     224.276     365.383
  H     -552.032     225.295     366.759
  H     -552.757     225.568     365.141
  P     -554.848     224.485     366.550
  C     -555.997     223.345     364.514
  O     -555.685     224.563     365.179
  C     -557.497     223.089     364.561
  O     -558.217     224.200     364.003
  C     -557.945     221.845     363.780
  O     -557.795     220.659     364.544
  C     -559.423     222.179     363.568
  O     -560.149     221.922     364.784
  C     -559.374     223.684     363.282
  N     -561.888     224.740     358.994
  C     -562.370     224.358     360.233
  N     -563.710     224.255     360.346
  N     -561.617     224.125     361.267
  C     -560.285     224.249     361.007
  C     -559.682     224.612     359.817
  C     -560.539     224.895     358.692
  O     -560.165     225.244     357.566
  N     -558.319     224.643     359.931
  C     -558.091     224.287     361.179
  N     -559.250     224.029     361.874
  O     -554.513     226.016     366.877
  O     -555.531     223.820     367.698
  H     -560.151     220.961     364.914
  H     -554.500     226.134     367.846
  H     -562.515     224.912     358.226
  H     -557.116     224.191     361.633
  H     -560.270     224.199     363.665
  H     -559.880     221.555     362.785
  H     -564.353     224.392     359.581
  H     -557.449     221.780     362.808
  H     -564.089     223.990     361.246
  H     -557.788     223.005     365.617
  H     -555.466     222.524     365.012
  H     -555.656     223.418     363.468
  P     -557.515     219.287     363.765
  C     -555.131     219.311     364.806
  O     -555.919     219.132     363.627
  O     -557.987     219.627     362.273
  O     -558.227     218.095     364.309
  H     -558.800     219.111     362.058
  H     -554.096     219.180     364.567
  H     -555.421     218.590     365.542
  H     -555.286     220.297     365.192

 6  7  8  9  10  11  12  13  14  15  26  29  33  34 0
 6-311+G(2d,p)
 ****
 36  38  39  40  41 0
 6-311+G(2d,p)
 ****
 1  2  3  4  5  16  17  18  19  20  21  22  23  24  25 0
 3-21G
 ****
 27  28  30  31  32  35  37  42  43  44  45  46  47 0
 3-21G
 ****
 48  49 0
 3-21G
 ****


