%nproc=1
%NoSave
%Mem=1900MB
#P OB98/GEN NMR

erre ene a

0 1
  C     -273.575    -506.391     327.643
  O     -273.854    -507.152     328.804
  P     -275.360    -507.640     329.057
  C     -274.976    -509.727     327.545
  O     -275.778    -508.584     327.822
  C     -275.745    -511.003     327.882
  O     -276.090    -511.004     329.300
  C     -277.054    -511.175     327.094
  O     -277.243    -512.580     326.864
  C     -278.097    -510.678     328.077
  O     -279.409    -511.132     327.783
  C     -277.514    -511.218     329.387
  N     -278.086    -510.579     330.576
  C     -278.505    -511.416     331.600
  O     -278.425    -512.645     331.574
  N     -279.097    -510.792     332.671
  C     -279.384    -509.460     332.773
  O     -280.013    -508.984     333.701
  C     -278.910    -508.630     331.652
  C     -278.294    -509.222     330.619
  O     -276.221    -506.310     328.819
  O     -275.608    -508.232     330.399
  H     -279.359    -512.092     327.617
  H     -276.462    -505.904     329.674
  H     -279.399    -511.378     333.438
  H     -279.103    -507.560     331.705
  H     -277.958    -508.625     329.775
  H     -277.669    -512.300     329.447
  H     -278.109    -509.579     328.073
  H     -277.075    -510.631     326.144
  H     -275.082    -511.864     327.715
  H     -274.069    -509.685     328.146
  H     -274.684    -509.716     326.487
  P     -277.974    -513.031     325.511
  C     -275.967    -512.912     323.838
  O     -277.172    -512.347     324.307
  O     -279.332    -512.184     325.606
  O     -278.198    -514.507     325.410
  H     -279.186    -511.269     325.905
  H     -275.982    -514.002     323.899
  H     -275.135    -512.526     324.429
  H     -275.821    -512.619     322.792
  H     -272.534    -506.145     327.620
  H     -274.154    -505.491     327.659
  H     -273.826    -506.962     326.774

 3  4  5  6  7  8  9  10  11  12  13  23  28  29  30  31  32 0
 6-311+G(2d,p)
 ****
 33  34 0
 6-311+G(2d,p)
 ****
 1  2  14  15  16  17  18  19  20  21  22  24  25  26 0
 3-21G
 ****
 27  35  36  37  38  39  40  41  42  43  44  45 0
 3-21G
 ****


