%nproc=1
%NoSave
%Mem=1900MB
#P OB98/GEN NMR

erre ene a

0 1
  C     -248.591    -851.691    -357.511
  O     -248.167    -853.042    -357.696
  P     -246.622    -853.447    -357.803
  C     -246.504    -853.935    -360.328
  O     -246.086    -853.076    -359.274
  C     -246.357    -853.266    -361.696
  O     -245.120    -852.524    -361.775
  C     -246.357    -854.229    -362.883
  O     -247.675    -854.645    -363.191
  C     -245.674    -853.378    -363.947
  O     -246.620    -852.477    -364.554
  C     -244.640    -852.599    -363.130
  N     -240.349    -853.109    -365.875
  C     -241.480    -852.413    -366.091
  N     -242.588    -852.331    -365.316
  C     -242.428    -853.050    -364.196
  C     -241.323    -853.818    -363.830
  C     -240.246    -853.833    -364.734
  N     -239.102    -854.563    -364.521
  N     -241.542    -854.436    -362.619
  C     -242.740    -854.038    -362.239
  N     -243.314    -853.198    -363.164
  O     -246.319    -854.850    -357.376
  O     -245.859    -852.395    -356.852
  H     -246.151    -851.977    -365.245
  H     -245.040    -852.797    -356.507
  H     -241.517    -851.839    -367.015
  H     -243.225    -854.323    -361.321
  H     -244.535    -851.564    -363.483
  H     -245.242    -853.983    -364.752
  H     -245.726    -855.091    -362.653
  H     -247.178    -852.531    -361.801
  H     -247.558    -854.199    -360.158
  H     -238.380    -854.540    -365.223
  H     -239.035    -855.144    -363.690
  H     -245.906    -854.849    -360.296
  P     -248.076    -856.190    -363.088
  C     -248.280    -856.775    -365.572
  O     -247.510    -856.920    -364.392
  O     -249.511    -856.464    -362.773
  O     -247.117    -856.745    -361.931
  H     -247.555    -857.489    -361.467
  H     -249.123    -857.471    -365.546
  H     -247.648    -857.001    -366.437
  H     -248.650    -855.742    -365.679
  H     -249.660    -851.655    -357.468
  H     -248.247    -851.094    -358.330
  H     -248.184    -851.311    -356.597

 3  4  5  6  7  8  9  10  11  12  22  25  29  30  31  32 0
 6-311+G(2d,p)
 ****
 33  36  37 0
 6-311+G(2d,p)
 ****
 1  2  13  14  15  16  17  18  19  20  21  23  24  26 0
 3-21G
 ****
 27  28  34  35  38  39  40  41  42  43  44  45  46  47  48 0
 3-21G
 ****


