%nproc=1
%NoSave
%Mem=1900MB
#P OB98/GEN NMR

erre ene a

0 1
  C       99.068     -61.018     -43.917
  O       99.222     -59.619     -44.164
  P      100.464     -59.103     -45.032
  C      100.848     -59.585     -47.544
  O      100.020     -58.968     -46.566
  C      100.474     -59.083     -48.941
  O       99.096     -59.389     -49.263
  C      100.574     -57.568     -49.074
  O      101.871     -57.012     -49.048
  C       99.722     -57.295     -50.301
  O      100.457     -57.499     -51.507
  C       98.611     -58.361     -50.154
  N       97.348     -57.798     -49.678
  C       96.400     -57.511     -50.655
  O       96.600     -57.668     -51.857
  N       95.214     -56.997     -50.203
  C       94.906     -56.716     -48.904
  O       93.835     -56.235     -48.556
  C       95.957     -57.018     -47.919
  C       97.111     -57.537     -48.343
  O      101.754     -59.815     -44.803
  O      100.593     -57.565     -44.579
  H       99.852     -57.320     -52.252
  H      101.544     -57.360     -44.488
  H       94.512     -56.791     -50.896
  H       95.749     -56.804     -46.879
  H       97.898     -57.767     -47.633
  H       98.417     -58.847     -51.118
  H       99.360     -56.262     -50.319
  H      100.046     -57.121     -48.219
  H      101.103     -59.591     -49.674
  H      100.739     -60.670     -47.489
  H      101.896     -59.367     -47.310
  P      102.646     -56.650     -47.692
  C      104.002     -57.994     -45.939
  O      103.539     -57.912     -47.268
  O      101.867     -55.971     -46.616
  O      103.765     -55.628     -48.232
  H      103.942     -54.969     -47.535
  H      104.602     -58.902     -45.834
  H      103.162     -58.048     -45.242
  H      104.630     -57.132     -45.699
  H       98.192     -61.181     -43.325
  H       99.926     -61.384     -43.392
  H       98.971     -61.536     -44.848

 3  4  5  6  7  8  9  10  11  12  13  23  28  29  30  31  32 0
 6-311+G(2d,p)
 ****
 33  34 0
 6-311+G(2d,p)
 ****
 1  2  14  15  16  17  18  19  20  21  22  24  25  26  27 0
 3-21G
 ****
 35  36  37  38  39  40  41  42  43  44  45 0
 3-21G
 ****


