%nproc=1
%NoSave
%Mem=1900MB
#P OB98/GEN NMR

erre ene a

0 1
  C     -314.558    -221.631    -896.950
  O     -315.686    -221.250    -896.180
  H     -313.643    -221.495    -896.370
  H     -314.654    -222.684    -897.210
  H     -314.514    -221.038    -897.870
  P     -315.679    -219.759    -895.610
  C     -316.689    -218.702    -897.770
  O     -316.865    -218.961    -896.370
  C     -317.818    -219.350    -898.560
  O     -317.625    -220.777    -898.640
  C     -319.208    -219.166    -897.960
  O     -319.750    -217.886    -898.230
  C     -319.974    -220.252    -898.700
  O     -320.336    -219.810    -900.000
  C     -318.933    -221.392    -898.800
  N     -321.411    -225.696    -897.550
  C     -321.486    -224.904    -898.640
  N     -320.814    -223.777    -898.890
  C     -319.938    -223.479    -897.890
  C     -319.773    -224.202    -896.720
  C     -320.554    -225.356    -896.550
  N     -320.479    -226.167    -895.430
  N     -318.806    -223.615    -895.930
  C     -318.423    -222.543    -896.610
  N     -319.097    -222.426    -897.790
  O     -314.345    -219.113    -896.230
  O     -315.685    -219.641    -894.110
  H     -320.800    -218.951    -899.900
  H     -313.947    -218.510    -895.570
  H     -322.177    -225.226    -899.420
  H     -317.648    -221.856    -896.280
  H     -318.943    -221.859    -899.790
  H     -320.892    -220.552    -898.180
  H     -319.198    -219.379    -896.880
  H     -317.777    -218.931    -899.580
  H     -315.729    -219.128    -898.090
  H     -320.903    -227.073    -895.460
  H     -319.826    -225.897    -894.710
  H     -316.668    -217.626    -897.930
  P     -320.489    -217.103    -897.040
  C     -318.369    -216.085    -895.920
  O     -319.554    -215.848    -896.670
  O     -320.278    -218.086    -895.780
  O     -321.926    -216.810    -897.280
  H     -320.992    -217.970    -895.120
  H     -317.860    -215.158    -895.756
  H     -317.731    -216.752    -896.462
  H     -318.625    -216.523    -894.978

 6  7  8  9  10  11  12  13  14  15  25  28  32  33  34  35 0
 6-311+G(2d,p)
 ****
 36  39  40 0
 6-311+G(2d,p)
 ****
 1  2  3  4  5  16  17  18  19  20  21  22  23  24 0
 3-21G
 ****
 26  27  29  30  31  37  38  41  42  43  44  45  46  47  48 0
 3-21G
 ****


