%nproc=1
%NoSave
%Mem=1900MB
#P OB98/GEN NMR

erre ene a

0 1
  C     -143.134    -595.814      70.839
  O     -143.513    -594.762      71.703
  H     -143.193    -596.758      71.388
  H     -142.107    -595.670      70.498
  H     -143.810    -595.864      69.983
  P     -143.534    -593.286      71.073
  C     -146.055    -593.025      70.476
  O     -144.733    -593.273      70.006
  C     -146.505    -591.634      70.043
  O     -145.622    -590.642      70.620
  C     -146.450    -591.399      68.537
  O     -147.567    -591.964      67.874
  C     -146.418    -589.875      68.473
  O     -147.732    -589.313      68.574
  C     -145.599    -589.512      69.718
  N     -142.391    -585.641      68.868
  C     -143.688    -585.672      69.241
  N     -144.469    -586.752      69.468
  C     -143.775    -587.885      69.276
  C     -142.447    -588.009      68.886
  C     -141.742    -586.813      68.682
  N     -140.432    -586.780      68.262
  N     -142.106    -589.339      68.750
  C     -143.199    -590.008      69.063
  N     -144.227    -589.169      69.389
  O     -142.216    -593.265      70.163
  O     -143.551    -592.171      72.065
  H     -147.632    -588.345      68.469
  H     -141.479    -592.874      70.667
  H     -144.162    -584.706      69.376
  H     -143.294    -591.086      69.052
  H     -146.025    -588.659      70.260
  H     -145.984    -589.527      67.535
  H     -145.515    -591.792      68.125
  H     -147.515    -591.458      70.428
  H     -146.063    -593.083      71.569
  H     -146.724    -593.790      70.072
  H     -139.995    -585.886      68.111
  H     -139.971    -587.646      68.018
  P     -147.346    -592.628      66.433
  C     -147.869    -594.954      67.487
  O     -147.001    -594.184      66.663
  O     -145.955    -592.003      65.948
  O     -148.441    -592.378      65.455
  H     -146.111    -591.268      65.321
  H     -147.509    -595.960      67.542
  H     -148.854    -594.950      67.069
  H     -147.897    -594.531      68.469

 6  7  8  9  10  11  12  13  14  15  25  28  32  33  34  35 0
 6-311+G(2d,p)
 ****
 36  37  40 0
 6-311+G(2d,p)
 ****
 1  2  3  4  5  16  17  18  19  20  21  22  23  24 0
 3-21G
 ****
 26  27  29  30  31  38  39 41  42  43  44  45  46  47  48 0
 3-21G
 ****


