%nproc=1
%NoSave
%Mem=1900MB
#P OB98/GEN NMR

erre ene a

0 1
  C      498.399     889.135     817.834
  O      498.167     887.744     817.872
  H      499.237     889.362     817.170
  H      497.507     889.631     817.456
  H      498.609     889.506     818.843
  P      499.408     886.823     818.306
  C      498.678     886.248     820.727
  O      499.560     886.984     819.899
  C      499.432     885.700     821.935
  O      500.482     884.813     821.507
  C      500.124     886.758     822.782
  O      499.217     887.427     823.650
  C      501.103     885.890     823.573
  O      500.421     885.264     824.673
  C      501.509     884.830     822.530
  N      506.605     884.227     822.873
  C      505.589     883.841     823.688
  N      504.269     884.037     823.532
  C      504.004     884.712     822.398
  C      504.933     885.180     821.479
  C      506.291     884.912     821.748
  N      507.311     885.334     820.923
  N      504.298     885.821     820.427
  C      503.013     885.738     820.714
  N      502.789     885.087     821.901
  O      500.678     887.617     817.728
  O      499.370     885.419     817.806
  H      500.474     885.885     825.423
  H      501.344     886.967     817.430
  H      505.885     883.280     824.566
  H      502.225     886.136     820.095
  H      501.543     883.827     822.975
  H      501.941     886.455     823.982
  H      500.687     887.467     822.167
  H      498.723     885.113     822.542
  H      498.258     885.413     820.157
  H      508.233     884.946     821.063
  H      507.066     885.841     820.081
  H      497.860     886.903     821.053
  P      499.461     888.995     823.905
  C      498.266     889.628     821.689
  O      499.467     889.680     822.447
  O      500.985     889.065     824.347
  O      498.555     889.613     824.918
  H      501.148     889.854     824.899
  H      498.415     890.119     820.750
  H      497.483     890.119     822.227
  H      497.996     888.607     821.519

 6  7  8  9  10  11  12  13  14  15  25  28  32  33  34  35 0
 6-311+G(2d,p)
 ****
 36  39  40 0
 6-311+G(2d,p)
 ****
 1  2  3  4  5  16  17  18  19  20  21  22  23  24 0
 3-21G
 ****
 26  27  29  30  31  37  38  41  42  43  44  45  46  47  48 0
 3-21G
 ****


