%nproc=1
%NoSave
%Mem=1900MB
#P OB98/GEN NMR

erre ene a

0 1
  C       -8.002     -29.709    -343.423
  O       -7.909     -29.903    -342.022
  P       -8.162     -28.636    -341.076
  C      -10.149     -29.349    -339.540
  O       -9.719     -28.633    -340.689
  C      -10.483     -28.369    -338.415
  O       -9.282     -27.704    -337.958
  C      -11.433     -27.256    -338.841
  O      -12.777     -27.704    -338.877
  C      -11.176     -26.203    -337.767
  O      -11.938     -26.481    -336.583
  C       -9.666     -26.390    -337.498
  N       -8.855     -25.347    -338.115
  C       -8.409     -24.337    -337.263
  O       -8.691     -24.302    -336.065
  N       -7.662     -23.351    -337.842
  C       -7.368     -23.240    -339.172
  O       -6.743     -22.301    -339.645
  C       -7.890     -24.320    -340.030
  C       -8.600     -25.301    -339.472
  O       -8.011     -27.384    -342.061
  O       -7.239     -28.536    -339.907
  H      -11.537     -25.958    -335.862
  H       -7.603     -26.635    -341.585
  H       -7.307     -22.623    -337.242
  H       -7.678     -24.264    -341.091
  H       -9.006     -26.097    -340.090
  H       -9.471     -26.382    -336.418
  H      -11.449     -25.202    -338.097
  H      -11.125     -26.853    -339.815
  H      -10.904     -28.934    -337.575
  H       -9.354     -30.028    -339.216
  H      -11.027     -29.953    -339.799
  P      -13.832     -26.768    -339.644
  C      -12.685     -27.200    -341.952
  O      -13.067     -26.273    -340.962
  O      -13.862     -25.499    -338.673
  O      -15.157     -27.429    -339.852
  H      -13.006     -25.341    -338.250
  H      -13.418     -28.006    -342.049
  H      -11.712     -27.626    -341.693
  H      -12.599     -26.679    -342.914
  H       -7.811     -30.634    -343.925
  H       -7.281     -28.981    -343.731
  H       -8.985     -29.365    -343.671

 3  4  5  6  7  8  9  10  11  12  13  23  28  29  30  31  32 0
 6-311+G(2d,p)
 ****
 33  34 0
 6-311+G(2d,p)
 ****
 1  2  14  15  16  17  18  19  20  21  22  24  25  26 0
 3-21G
 ****
 27  35  36  37  38  39  40  41  42  43  44  45 0
 3-21G
 ****


