%nproc=1
%NoSave
%Mem=1900MB
#P OB98/GEN NMR

erre ene a

0 1
  C     -126.638     150.985     137.045
  O     -125.393     150.804     137.684
  H     -127.186     151.779     137.561
  H     -127.224     150.066     137.105
  H     -126.506     151.276     135.999
  P     -124.275     149.904     136.970
  C     -123.880     147.373     136.659
  O     -124.695     148.379     137.243
  C     -124.706     146.110     136.404
  O     -125.096     145.552     137.695
  C     -125.997     146.372     135.598
  O     -126.258     145.229     134.774
  C     -127.028     146.460     136.706
  O     -128.333     146.254     136.225
  C     -126.525     145.386     137.665
  N     -127.132     145.521     138.986
  C     -127.906     144.457     139.434
  O     -128.107     143.436     138.777
  N     -128.517     144.629     140.647
  C     -128.517     145.776     141.383
  O     -129.145     145.901     142.425
  C     -127.724     146.889     140.835
  C     -127.072     146.711     139.683
  O     -122.859     150.229     137.308
  O     -124.581     150.061     135.406
  H     -128.391     145.388     135.780
  H     -123.790     149.836     134.882
  H     -129.074     143.864     140.992
  H     -127.716     147.819     141.388
  H     -126.493     147.514     139.239
  H     -126.735     144.382     137.273
  H     -126.996     147.452     137.171
  H     -125.944     147.272     134.984
  H     -124.077     145.361     135.909
  H     -123.061     147.148     137.351
  H     -123.459     147.744     135.718
  P     -126.314     145.338     133.173
  C     -127.940     145.963     131.285
  O     -127.766     145.832     132.692
  O     -125.823     144.120     132.460
  O     -125.370     146.586     132.831
  H     -124.782     146.348     132.087
  H     -128.936     146.295     131.078
  H     -127.775     145.016     130.816
  H     -127.240     146.676     130.904

 6  7  8  9  10  11  12  13  14  15  16  26  31  32  33  34  35 0
 6-311+G(2d,p)
 ****
 36  37 0
 6-311+G(2d,p)
 ****
 1  2  3  4  5  17  18  19  20  21  22  23  24  25 0
 3-21G
 ****
 27  28  29  30  38  39  40  41  42  43  44  45 0
 3-21G
 ****


