%nproc=1
%NoSave
%Mem=1900MB
#P OB98/GEN NMR

erre ene a

0 1
  C      903.899    -390.813     305.998
  O      903.213    -389.605     306.275
  H      904.700    -390.936     306.731
  H      904.337    -390.773     304.996
  H      903.217    -391.662     306.072
  P      901.979    -389.247     305.315
  C      900.433    -388.130     307.091
  O      901.271    -387.958     305.960
  C      900.426    -386.864     307.955
  O      901.673    -386.824     308.727
  C      900.366    -385.556     307.149
  O      899.718    -384.565     307.953
  C      901.841    -385.214     307.003
  O      902.012    -383.879     306.572
  C      902.321    -385.573     308.405
  N      906.766    -383.075     308.843
  C      905.489    -382.641     308.832
  N      904.355    -383.369     308.723
  C      904.639    -384.677     308.642
  C      905.891    -385.276     308.650
  C      906.999    -384.414     308.754
  N      908.291    -384.853     308.756
  N      905.774    -386.657     308.546
  C      904.482    -386.884     308.476
  N      903.753    -385.718     308.524
  O      900.939    -390.436     305.587
  O      902.311    -389.119     303.867
  H      901.504    -383.717     305.751
  H      901.054    -391.134     304.920
  H      905.362    -381.561     308.916
  H      904.011    -387.857     308.388
  H      902.001    -384.842     309.153
  H      902.320    -385.847     306.255
  H      899.837    -385.660     306.197
  H      899.613    -386.929     308.684
  H      900.798    -388.979     307.675
  H      899.405    -388.344     306.752
  H      909.034    -384.164     308.813
  H      908.484    -385.846     308.673
  P      898.205    -384.142     307.619
  C      898.417    -382.578     309.704
  O      897.849    -382.804     308.428
  O      897.368    -385.245     308.425
  O      897.838    -384.155     306.168
  H      896.506    -385.397     307.983
  H      898.068    -381.642     310.089
  H      899.483    -382.554     309.621
  H      898.129    -383.366     310.367

 6  7  8  9  10  11  12  13  14  15  25  28  32  33  34  35 0
 6-311+G(2d,p)
 ****
 36  37  40 0
 6-311+G(2d,p)
 ****
 1  2  3  4  5  16  17  18  19  20  21  22  23  24 0
 3-21G
 ****
 26  27  29  30  31  38  39 41  42  43  44  45  46  47  48 0
 3-21G
 ****


