%nproc=1
%NoSave
%Mem=1900MB
#P OB98/GEN NMR

erre ene a

0 1
  C       17.027     -95.764     -42.468
  O       17.255     -95.304     -43.798
  P       16.271     -94.342     -44.607
  C       16.526     -92.630     -46.577
  O       17.102     -93.666     -45.796
  C       17.516     -92.001     -47.572
  O       18.646     -91.451     -46.847
  C       18.082     -93.066     -48.512
  O       17.357     -93.458     -49.662
  C       19.504     -92.608     -48.803
  O       19.597     -91.837     -50.001
  C       19.850     -91.744     -47.586
  N       24.188     -91.238     -44.922
  C       23.561     -90.328     -45.750
  N       24.191     -89.148     -45.935
  N       22.429     -90.562     -46.355
  C       21.952     -91.810     -46.155
  C       22.492     -92.806     -45.373
  C       23.718     -92.518     -44.660
  O       24.308     -93.283     -43.905
  N       21.739     -93.952     -45.428
  C       20.761     -93.658     -46.258
  N       20.841     -92.365     -46.723
  O       15.424     -93.439     -43.777
  O       15.288     -95.372     -45.368
  H       18.926     -91.133     -49.959
  H       14.417     -94.930     -45.430
  H       25.049     -90.997     -44.461
  H       19.969     -94.338     -46.552
  H       20.269     -90.778     -47.893
  H       20.167     -93.470     -48.936
  H       25.120     -88.954     -45.595
  H       18.188     -93.988     -47.924
  H       23.850     -88.569     -46.704
  H       17.058     -91.159     -48.097
  H       16.155     -91.876     -45.878
  H       15.655     -93.009     -47.115
  P       16.686     -94.889     -49.918
  C       14.735     -95.712     -51.361
  O       15.807     -94.792     -51.251
  O       15.574     -95.005     -48.773
  O       17.628     -96.047     -49.863
  H       15.284     -95.931     -48.672
  H       14.417     -95.764     -52.405
  H       13.896     -95.372     -50.749
  H       15.043     -96.711     -51.034
  H       17.837     -96.393     -42.164
  H       16.113     -96.319     -42.434
  H       16.960     -94.925     -41.807

 3  4  5  6  7  8  9  10  11  12  23  26  30  31 0
 6-311+G(2d,p)
 ****
 33  35  36  37  38 0
 6-311+G(2d,p)
 ****
 1  2  13  14  15  16  17  18  19  20  21  22  24  25 0
 3-21G
 ****
 27  28  29  32  34  39  40  41  42  43  44  45  46  47  48  49 0
 3-21G
 ****


