%nproc=1
%NoSave
%Mem=1900MB
#P OB98/GEN NMR

erre ene a

0 1
  C       34.520    -734.763      62.630
  O       34.641    -735.268      63.951
  P       33.686    -734.624      65.079
  C       35.664    -734.299      66.735
  O       34.638    -733.683      65.963
  C       36.444    -733.247      67.517
  O       37.238    -732.443      66.622
  C       35.586    -732.265      68.293
  O       35.154    -732.795      69.532
  C       36.568    -731.128      68.514
  O       37.453    -731.453      69.600
  C       37.342    -731.110      67.192
  N       37.707    -726.280      65.561
  C       38.305    -726.933      66.580
  N       38.150    -728.220      66.959
  C       37.235    -728.832      66.178
  C       36.520    -728.284      65.130
  C       36.795    -726.944      64.812
  N       36.207    -726.287      63.755
  N       35.679    -729.223      64.578
  C       35.890    -730.320      65.273
  N       36.830    -730.141      66.246
  O       33.401    -735.867      66.049
  O       32.433    -734.007      64.566
  H       36.929    -731.370      70.423
  H       32.574    -735.717      66.541
  H       39.012    -726.348      67.166
  H       35.391    -731.263      65.100
  H       38.408    -730.905      67.336
  H       36.079    -730.181      68.771
  H       34.744    -731.904      67.684
  H       37.135    -733.773      68.193
  H       36.348    -734.826      66.064
  H       36.590    -725.397      63.485
  H       35.685    -726.844      63.084
  H       35.210    -735.021      67.416
  P       34.241    -731.843      70.443
  C       35.792    -731.857      72.531
  O       35.249    -731.116      71.451
  O       33.445    -732.878      71.377
  O       33.316    -730.955      69.676
  H       32.602    -732.491      71.673
  H       36.672    -731.329      72.908
  H       36.099    -732.854      72.205
  H       35.050    -731.935      73.331
  H       35.206    -735.275      61.988
  H       34.741    -733.716      62.627
  H       33.521    -734.917      62.279

 3  4  5  6  7  8  9  10  11  12  22  25  29  30  31  32 0
 6-311+G(2d,p)
 ****
 33  36  37 0
 6-311+G(2d,p)
 ****
 1  2  13  14  15  16  17  18  19  20  21  23  24  26 0
 3-21G
 ****
 27  28  34  35  38  39  40  41  42  43  44  45  46  47  48 0
 3-21G
 ****


