%nproc=1
%NoSave
%Mem=1900MB
#P OB98/GEN NMR

erre ene a

0 1
  C      642.149     715.792     456.942
  O      641.150     716.321     457.804
  P      641.130     716.127     459.391
  C      642.407     717.173     461.428
  O      642.246     717.092     460.025
  C      643.142     718.451     461.881
  O      644.380     718.592     461.124
  C      642.299     719.691     461.571
  O      641.297     720.104     462.484
  C      643.324     720.773     461.254
  O      643.658     721.574     462.391
  C      644.541     719.986     460.784
  N      647.196     722.301     457.068
  C      647.221     722.526     458.427
  N      648.032     723.530     458.864
  N      646.521     721.839     459.294
  C      645.701     720.927     458.715
  C      645.572     720.626     457.381
  C      646.396     721.356     456.443
  O      646.429     721.190     455.220
  N      644.633     719.660     457.178
  C      644.159     719.389     458.377
  N      644.791     720.129     459.349
  O      641.115     714.722     459.868
  O      639.736     716.816     459.833
  H      642.921     722.184     462.553
  H      639.415     716.316     460.611
  H      647.789     722.843     456.452
  H      643.383     718.665     458.607
  H      645.451     720.320     461.293
  H      642.921     721.470     460.500
  H      648.495     724.163     458.242
  H      641.777     719.498     460.628
  H      647.879     723.834     459.823
  H      643.438     718.379     462.926
  H      642.958     716.285     461.738
  H      641.431     717.131     461.921
  P      640.219     719.139     463.184
  C      640.225     717.407     465.068
  O      640.889     718.517     464.499
  O      640.121     717.883     462.202
  O      638.863     719.746     463.395
  H      639.321     717.361     462.386
  H      640.589     717.270     466.103
  H      640.434     716.499     464.493
  H      639.140     717.570     465.096
  H      641.929     716.065     455.931
  H      642.166     714.726     457.028
  H      643.104     716.187     457.218

 3  4  5  6  7  8  9  10  11  12  23  26  30  31 0
 6-311+G(2d,p)
 ****
 33  35  36  37  38 0
 6-311+G(2d,p)
 ****
 1  2  13  14  15  16  17  18  19  20  21  22  24  25 0
 3-21G
 ****
 27  28  29  32  34  39  40  41  42  43  44  45  46  47  48  49 0
 3-21G
 ****


