%nproc=1
%NoSave
%Mem=1900MB
#P OB98/GEN NMR

erre ene a

0 1
  C      -17.790       0.886      -4.724
  O      -16.761       0.241      -4.009
  P      -16.348       0.712      -2.536
  C      -14.116       1.574      -3.491
  O      -15.266       1.888      -2.713
  C      -13.311       2.844      -3.788
  O      -14.116       3.718      -4.641
  C      -12.947       3.632      -2.513
  O      -11.559       3.941      -2.387
  C      -13.880       4.831      -2.582
  O      -13.452       5.936      -1.811
  C      -13.998       5.045      -4.095
  N      -15.129       5.897      -4.452
  C      -15.077       7.226      -4.044
  O      -14.146       7.725      -3.419
  N      -16.180       7.983      -4.325
  C      -17.349       7.528      -4.855
  O      -18.334       8.241      -4.989
  C      -17.360       6.106      -5.231
  C      -16.263       5.370      -5.038
  O      -15.924      -0.378      -1.611
  O      -17.638       1.522      -2.040
  H      -14.018       6.697      -2.038
  H      -17.878       2.287      -2.591
  H      -16.155       8.948      -4.035
  H      -18.278       5.714      -5.644
  H      -16.241       4.319      -5.305
  H      -13.090       5.488      -4.507
  H      -14.853       4.520      -2.182
  H      -13.171       3.049      -1.613
  H      -12.415       2.550      -4.340
  H      -14.441       1.128      -4.434
  H      -13.505       0.830      -2.968
  P      -10.747       3.976      -1.009
  C      -10.843       6.574      -1.015
  O      -11.039       5.375      -0.293
  O       -9.304       3.608      -1.112
  O      -11.531       2.926      -0.088
  H      -10.913       2.530       0.554
  H      -10.589       7.369      -0.310
  H      -11.773       6.842      -1.524
  H      -10.038       6.476      -1.747
  H      -17.906       0.420      -5.680
  H      -17.539       1.917      -4.858
  H      -18.706       0.810      -4.177

 3  4  5  6  7  8  9  10  11  12  13  23  28  29  30  31  32 0
 6-311+G(2d,p)
 ****
 33  34 0
 6-311+G(2d,p)
 ****
 1  2  14  15  16  17  18  19  20  21  22  24  25  26  27 0
 3-21G
 ****
 35  36  37  38  39  40  41  42  43  44  45 0
 3-21G
 ****


