%nproc=1
%NoSave
%Mem=1900MB
#P OB98/GEN NMR

erre ene a

0 1
  C      651.699     355.362    -788.899
  O      653.094     355.538    -788.795
  H      651.313     355.037    -787.932
  H      651.477     354.592    -789.645
  H      651.203     356.294    -789.179
  P      653.860     356.345    -789.949
  C      655.572     357.443    -788.354
  O      654.504     357.649    -789.261
  C      656.186     358.773    -787.911
  O      656.884     359.383    -789.029
  C      655.090     359.753    -787.485
  O      655.550     360.685    -786.509
  C      654.792     360.505    -788.781
  O      654.173     361.771    -788.557
  C      656.173     360.586    -789.408
  N      657.748     363.221    -793.466
  C      657.881     363.511    -792.123
  N      658.517     364.679    -791.826
  N      657.441     362.746    -791.157
  C      656.781     361.657    -791.609
  C      656.552     361.260    -792.911
  C      657.083     362.102    -793.974
  O      656.970     361.903    -795.175
  N      655.817     360.109    -792.975
  C      655.585     359.801    -791.714
  N      656.167     360.698    -790.844
  O      652.680     356.962    -790.831
  O      654.805     355.540    -790.788
  H      653.925     362.137    -789.431
  H      652.983     357.135    -791.737
  H      658.123     363.833    -794.169
  H      655.026     358.935    -791.372
  H      656.729     361.434    -789.009
  H      654.086     359.902    -789.364
  H      658.708     365.371    -792.524
  H      654.203     359.240    -787.096
  H      658.364     365.046    -790.880
  H      656.935     358.603    -787.121
  H      656.325     356.843    -788.867
  H      655.226     356.871    -787.486
  P      654.557     361.058    -785.307
  C      656.568     361.030    -783.616
  O      655.260     360.608    -783.935
  O      653.337     360.021    -785.487
  O      654.096     362.474    -785.323
  H      652.561     360.489    -785.853
  H      656.852     360.626    -782.667
  H      656.597     362.099    -783.571
  H      657.247     360.686    -784.368

 6  7  8  9  10  11  12  13  14  15  26  29  33  34 0
 6-311+G(2d,p)
 ****
 36  38  39  40  41 0
 6-311+G(2d,p)
 ****
 1  2  3  4  5  16  17  18  19  20  21  22  23  24  25 0
 3-21G
 ****
 27  28  30  31  32  35  37  42  43  44  45  46  47 0
 3-21G
 ****
 48  49 0
 3-21G
 ****


