%nproc=1
%NoSave
%Mem=1900MB
#P OB98/GEN NMR

erre ene a

0 1
  C      114.702    -222.056     -64.686
  O      115.866    -221.494     -65.256
  H      114.962    -223.017     -64.239
  H      113.941    -222.221     -65.453
  H      114.308    -221.400     -63.903
  P      115.747    -220.101     -66.041
  C      115.528    -218.408     -64.101
  O      116.384    -218.976     -65.086
  C      116.344    -217.970     -62.879
  O      117.159    -219.095     -62.465
  C      117.274    -216.785     -63.189
  O      117.113    -215.700     -62.277
  C      118.647    -217.440     -63.289
  O      119.726    -216.576     -62.999
  C      118.524    -218.651     -62.359
  N      119.447    -219.739     -62.683
  C      120.515    -219.956     -61.813
  O      120.735    -219.308     -60.793
  N      121.360    -220.977     -62.160
  C      121.253    -221.777     -63.263
  O      122.040    -222.679     -63.515
  C      120.122    -221.482     -64.155
  C      119.284    -220.493     -63.831
  O      114.390    -219.773     -66.570
  O      116.825    -220.224     -67.218
  H      119.618    -216.282     -62.070
  H      116.364    -220.379     -68.066
  H      122.130    -221.153     -61.532
  H      120.016    -222.087     -65.045
  H      118.438    -220.251     -64.466
  H      118.710    -218.358     -61.324
  H      118.788    -217.796     -64.318
  H      117.022    -216.338     -64.158
  H      115.654    -217.739     -62.059
  H      114.795    -219.173     -63.815
  H      114.999    -217.548     -64.523
  P      116.487    -214.279     -62.644
  C      113.890    -214.395     -62.246
  O      115.178    -214.052     -61.754
  O      116.372    -213.972     -64.101
  O      117.536    -213.227     -62.010
  H      117.522    -212.439     -62.593
  H      113.153    -214.168     -61.505
  H      113.860    -215.441     -62.469
  H      113.687    -213.835     -63.135

 6  7  8  9  10  11  12  13  14  15  16  26  31  32  33  34  35 0
 6-311+G(2d,p)
 ****
 36  37 0
 6-311+G(2d,p)
 ****
 1  2  3  4  5  17  18  19  20  21  22  23  24  25 0
 3-21G
 ****
 27  28  29  30  38  39  40  41  42  43  44  45 0
 3-21G
 ****


