%nproc=1
%NoSave
%Mem=1900MB
#P OB98/GEN NMR

erre ene a

0 1
  C     -288.169     363.504     122.786
  O     -287.789     362.222     123.240
  H     -287.936     364.235     123.562
  H     -289.246     363.529     122.594
  H     -287.624     363.773     121.877
  P     -287.854     360.989     122.219
  C     -286.231     361.766     120.367
  O     -286.429     360.918     121.488
  C     -285.073     361.259     119.499
  O     -285.262     361.756     118.138
  C     -283.681     361.731     119.962
  O     -282.744     360.710     119.586
  C     -283.506     362.980     119.118
  O     -282.191     363.473     119.146
  C     -284.052     362.458     117.783
  N     -284.322     363.477     116.776
  C     -283.247     364.216     116.294
  O     -282.081     364.065     116.656
  N     -283.552     365.166     115.356
  C     -284.790     365.432     114.853
  O     -284.997     366.274     113.989
  C     -285.888     364.624     115.404
  C     -285.609     363.696     116.321
  O     -289.034     360.962     121.307
  O     -287.822     359.705     123.177
  H     -288.724     359.341     123.265
  H     -281.611     362.867     118.635
  H     -282.783     365.706     114.994
  H     -286.887     364.817     115.038
  H     -286.398     363.077     116.738
  H     -283.361     361.717     117.362
  H     -284.136     363.785     119.509
  H     -283.621     361.900     121.041
  H     -285.124     360.165     119.448
  H     -286.002     362.772     120.737
  H     -287.153     361.807     119.779
  P     -282.309     359.509     120.559
  C     -283.994     357.555     120.378
  O     -282.789     358.129     119.892
  O     -282.755     359.681     121.970
  O     -280.711     359.447     120.460
  H     -280.350     359.065     121.282
  H     -284.194     356.646     119.850
  H     -284.802     358.240     120.227
  H     -283.894     357.346     121.423

 6  7  8  9  10  11  12  13  14  15  16  27  31  32  33  34  35 0
 6-311+G(2d,p)
 ****
 36  37 0
 6-311+G(2d,p)
 ****
 1  2  3  4  5  17  18  19  20  21  22  23  24  25 0
 3-21G
 ****
 26  28  29  30  38  39  40  41  42  43  44  45 0
 3-21G
 ****


