%nproc=1
%NoSave
%Mem=1900MB
#P OB98/GEN NMR

erre ene a

0 1
  C      -38.824      31.214    -351.747
  O      -38.025      32.353    -351.986
  H      -38.920      31.077    -350.666
  H      -38.351      30.324    -352.169
  H      -39.822      31.341    -352.173
  P      -37.861      32.878    -353.493
  C      -36.668      35.074    -352.866
  O      -37.831      34.479    -353.429
  C      -36.865      36.582    -352.742
  O      -37.804      36.872    -351.681
  C      -35.595      37.342    -352.379
  O      -34.725      37.460    -353.488
  C      -36.179      38.649    -351.873
  O      -36.502      39.528    -352.959
  C      -37.462      38.176    -351.156
  N      -37.293      38.131    -349.702
  C      -37.954      39.117    -348.978
  O      -38.657      39.985    -349.493
  N      -37.730      39.113    -347.627
  C      -36.823      38.327    -346.975
  O      -36.476      38.523    -345.814
  C      -36.203      37.265    -347.780
  C      -36.452      37.224    -349.090
  O      -38.814      32.299    -354.485
  O      -36.345      32.507    -353.855
  H      -36.336      31.706    -354.412
  H      -36.980      40.283    -352.558
  H      -38.173      39.851    -347.098
  H      -35.530      36.575    -347.282
  H      -35.979      36.470    -349.712
  H      -38.300      38.842    -351.389
  H      -35.480      39.172    -351.219
  H      -35.086      36.836    -351.551
  H      -37.290      36.955    -353.684
  H      -35.817      34.870    -353.523
  H      -36.478      34.625    -351.885
  P      -33.552      36.394    -353.712
  C      -33.179      36.580    -356.248
  O      -33.700      35.784    -355.188
  O      -33.399      35.378    -352.627
  O      -32.231      37.293    -353.835
  H      -31.549      36.935    -353.231
  H      -33.332      36.077    -357.180
  H      -32.132      36.736    -356.095
  H      -33.682      37.524    -356.265

 6  7  8  9  10  11  12  13  14  15  16  27  31  32  33  34  35 0
 6-311+G(2d,p)
 ****
 36  37 0
 6-311+G(2d,p)
 ****
 1  2  3  4  5  17  18  19  20  21  22  23  24  25 0
 3-21G
 ****
 26  28  29  30  38  39  40  41  42  43  44  45 0
 3-21G
 ****


