%nproc=1
%NoSave
%Mem=1900MB
#P OB98/GEN NMR

erre ene a

0 1
  C      199.175    -244.759     -75.233
  O      198.349    -245.878     -75.492
  H      199.795    -244.572     -76.114
  H      199.830    -244.947     -74.378
  H      198.559    -243.877     -75.043
  P      197.547    -246.527     -74.263
  C      198.595    -248.748     -75.058
  O      197.410    -248.089     -74.621
  C      198.282    -249.826     -76.096
  O      197.635    -250.958     -75.475
  C      197.321    -249.378     -77.187
  O      197.827    -248.391     -78.054
  C      196.861    -250.709     -77.763
  O      197.784    -251.239     -78.713
  C      196.833    -251.601     -76.494
  N      195.480    -251.861     -76.028
  C      194.942    -253.098     -76.369
  O      195.545    -253.936     -77.045
  N      193.666    -253.337     -75.937
  C      192.877    -252.458     -75.254
  O      191.728    -252.727     -74.910
  C      193.482    -251.150     -74.952
  C      194.735    -250.915     -75.349
  O      196.246    -245.866     -73.914
  O      198.613    -246.527     -73.069
  H      198.613    -251.428     -78.230
  H      198.169    -246.674     -72.196
  H      193.265    -254.236     -76.160
  H      192.880    -250.430     -74.421
  H      195.206    -249.961     -75.133
  H      197.313    -252.567     -76.703
  H      195.892    -250.634     -78.263
  H      196.440    -248.931     -76.703
  H      199.231    -250.176     -76.520
  H      199.061    -249.213     -74.183
  H      199.290    -248.010     -75.478
  P      197.144    -246.968     -78.274
  C      195.909    -247.323     -80.552
  O      196.989    -246.716     -79.850
  O      197.643    -245.843     -77.425
  O      195.617    -247.267     -77.830
  H      195.272    -246.452     -77.416
  H      195.958    -247.051     -81.586
  H      194.981    -246.987     -80.138
  H      195.977    -248.387     -80.460

 6  7  8  9  10  11  12  13  14  15  16  26  31  32  33  34  35 0
 6-311+G(2d,p)
 ****
 36  37 0
 6-311+G(2d,p)
 ****
 1  2  3  4  5  17  18  19  20  21  22  23  24  25 0
 3-21G
 ****
 27  28  29  30  38  39  40  41  42  43  44  45 0
 3-21G
 ****


