%nproc=1
%NoSave
%Mem=1900MB
#P OB98/GEN NMR

erre ene a

0 1
  C     -178.758     431.264    -293.717
  O     -179.116     431.063    -292.360
  P     -180.588     430.554    -291.980
  C     -179.583     428.176    -291.919
  O     -180.630     429.011    -292.410
  C     -180.139     427.032    -291.074
  O     -180.703     427.531    -289.841
  C     -181.261     426.257    -291.750
  O     -180.724     425.363    -292.717
  C     -181.902     425.569    -290.554
  O     -181.196     424.378    -290.186
  C     -181.777     426.653    -289.460
  N     -183.020     427.374    -289.232
  C     -183.950     426.731    -288.404
  O     -183.709     425.622    -287.942
  N     -185.148     427.357    -288.148
  C     -185.404     428.512    -288.714
  N     -186.615     429.072    -288.428
  C     -184.465     429.190    -289.611
  C     -183.301     428.574    -289.831
  O     -181.710     431.398    -292.489
  O     -180.532     430.471    -290.374
  H     -181.638     424.043    -289.382
  H     -180.572     431.373    -289.971
  H     -184.727     430.140    -290.066
  H     -182.557     429.004    -290.491
  H     -181.467     426.187    -288.499
  H     -182.946     425.277    -290.758
  H     -181.968     426.945    -292.212
  H     -179.308     426.362    -290.822
  H     -187.249     428.558    -287.828
  H     -178.919     428.800    -291.296
  H     -186.925     429.941    -288.839
  H     -178.999     427.789    -292.761
  P     -181.612     424.940    -293.992
  C     -180.451     426.226    -295.889
  O     -181.574     426.154    -295.041
  O     -182.974     424.416    -293.669
  O     -180.728     423.818    -294.707
  H     -181.313     423.078    -294.958
  H     -180.685     426.850    -296.744
  H     -180.170     425.219    -296.244
  H     -179.602     426.661    -295.346
  H     -177.744     431.602    -293.772
  H     -179.403     431.999    -294.151
  H     -178.856     430.343    -294.252

 3  4  5  6  7  8  9  10  11  12  13  23  27  28  29  30  32 0
 6-311+G(2d,p)
 ****
 34  35 0
 6-311+G(2d,p)
 ****
 1  2  14  15  16  17  18  19  20  21  22  24  25  26 0
 3-21G
 ****
 31  33  36  37  38  39  40  41  42  43  44  45  46 0
 3-21G
 ****


