%nproc=1
%NoSave
%Mem=1900MB
#P OB98/GEN NMR

erre ene a

0 1
  C     -252.242    -444.814     -23.076
  O     -252.463    -443.613     -22.322
  P     -253.913    -442.957     -22.116
  C     -253.980    -441.621     -24.321
  O     -254.573    -442.654     -23.547
  C     -254.503    -441.611     -25.761
  O     -255.909    -441.205     -25.780
  C     -253.741    -440.667     -26.710
  O     -253.657    -441.339     -27.971
  C     -254.673    -439.468     -26.778
  O     -254.437    -438.623     -27.888
  C     -256.027    -440.189     -26.800
  N     -257.192    -439.346     -26.554
  C     -258.240    -439.397     -27.483
  O     -258.160    -440.081     -28.503
  N     -259.362    -438.640     -27.243
  C     -259.435    -437.896     -26.187
  N     -260.584    -437.185     -26.007
  C     -258.352    -437.797     -25.195
  C     -257.275    -438.540     -25.437
  O     -253.910    -441.770     -21.205
  O     -254.830    -444.123     -21.509
  H     -255.460    -443.738     -20.869
  H     -255.104    -437.908     -27.873
  H     -258.456    -437.171     -24.321
  H     -256.445    -438.547     -24.740
  H     -256.146    -440.709     -27.757
  H     -254.543    -438.872     -25.870
  H     -252.731    -440.428     -26.370
  H     -254.473    -442.640     -26.139
  H     -261.310    -437.287     -26.705
  H     -252.898    -441.778     -24.340
  H     -260.749    -436.579     -25.217
  H     -254.176    -440.657     -23.836
  P     -252.451    -442.355     -28.251
  C     -251.199    -440.539     -29.644
  O     -251.148    -441.478     -28.587
  O     -252.835    -442.937     -29.697
  O     -252.285    -443.473     -27.272
  H     -252.432    -443.818     -29.805
  H     -250.729    -439.612     -29.308
  H     -252.223    -440.319     -29.959
  H     -250.639    -440.930     -30.499
  H     -251.199    -445.052     -23.070
  H     -252.569    -444.667     -24.084
  H     -252.793    -445.618     -22.635

 3  4  5  6  7  8  9  10  11  12  13  24  27  28  29  30  32 0
 6-311+G(2d,p)
 ****
 34  35 0
 6-311+G(2d,p)
 ****
 1  2  14  15  16  17  18  19  20  21  22  23  25  26 0
 3-21G
 ****
 31  33  36  37  38  39  40  41  42  43  44  45  46 0
 3-21G
 ****


