%nproc=1
%NoSave
%Mem=1900MB
#P OB98/GEN NMR

erre ene a

0 1
  C      461.359    -320.808    -127.025
  O      461.505    -320.739    -128.429
  H      461.269    -321.861    -126.733
  H      460.464    -320.276    -126.693
  H      462.246    -320.389    -126.534
  P      461.398    -319.296    -129.127
  C      459.723    -317.411    -128.562
  O      459.893    -318.798    -128.859
  C      458.241    -317.069    -128.378
  O      457.584    -318.099    -127.616
  C      458.000    -315.783    -127.602
  O      458.376    -314.611    -128.293
  C      456.561    -315.950    -127.125
  O      455.595    -315.521    -128.078
  C      456.467    -317.485    -126.939
  N      456.412    -317.863    -125.529
  C      455.358    -317.319    -124.799
  O      454.525    -316.546    -125.273
  N      455.317    -317.657    -123.470
  C      456.237    -318.427    -122.813
  O      456.164    -318.659    -121.614
  C      457.340    -318.951    -123.634
  C      457.379    -318.652    -124.935
  O      461.806    -319.239    -130.568
  O      462.268    -318.348    -128.175
  H      454.720    -315.614    -127.662
  H      462.501    -317.503    -128.630
  H      454.557    -317.280    -122.925
  H      458.088    -319.563    -123.145
  H      458.185    -319.025    -125.563
  H      455.559    -317.867    -127.424
  H      456.377    -315.390    -126.204
  H      458.628    -315.811    -126.697
  H      457.769    -317.027    -129.367
  H      460.122    -316.839    -129.406
  H      460.290    -317.158    -127.660
  P      459.009    -313.333    -127.572
  C      458.136    -311.697    -125.757
  O      457.821    -312.496    -126.884
  O      460.061    -312.590    -128.330
  O      459.729    -314.016    -126.295
  H      460.539    -313.504    -126.104
  H      457.252    -311.204    -125.411
  H      458.868    -310.966    -126.031
  H      458.526    -312.318    -124.978

 6  7  8  9  10  11  12  13  14  15  16  26  31  32  33  34  35 0
 6-311+G(2d,p)
 ****
 36  37 0
 6-311+G(2d,p)
 ****
 1  2  3  4  5  17  18  19  20  21  22  23  24  25 0
 3-21G
 ****
 27  28  29  30  38  39  40  41  42  43  44  45 0
 3-21G
 ****


