%nproc=1
%NoSave
%Mem=1900MB
#P OB98/GEN NMR

erre ene a

0 1
  C     -221.496      44.241    -443.614
  O     -220.411      43.457    -443.151
  P     -220.573      42.541    -441.842
  C     -219.203      43.321    -439.810
  O     -220.409      43.482    -440.553
  C     -218.101      44.209    -440.382
  O     -218.524      45.593    -440.427
  C     -216.820      44.215    -439.565
  O     -216.090      43.009    -439.706
  C     -216.121      45.453    -440.118
  O     -215.464      45.158    -441.363
  C     -217.323      46.404    -440.356
  N     -217.431      47.428    -439.331
  C     -216.862      48.664    -439.643
  O     -216.237      48.825    -440.694
  N     -217.008      49.699    -438.745
  C     -217.557      49.473    -437.590
  N     -217.727      50.543    -436.769
  C     -218.024      48.137    -437.167
  C     -217.951      47.176    -438.085
  O     -219.740      41.303    -441.829
  O     -222.132      42.174    -441.818
  H     -222.229      41.212    -441.707
  H     -214.714      44.569    -441.145
  H     -218.413      47.990    -436.168
  H     -218.294      46.171    -437.866
  H     -217.232      46.884    -441.339
  H     -215.366      45.849    -439.435
  H     -217.058      44.375    -438.506
  H     -217.898      43.879    -441.413
  H     -217.413      51.448    -437.102
  H     -218.899      42.270    -439.863
  H     -218.416      50.553    -436.019
  H     -219.393      43.572    -438.760
  P     -215.053      42.647    -438.536
  C     -212.580      42.783    -439.319
  O     -213.712      43.477    -438.819
  O     -214.637      41.134    -438.867
  O     -215.601      42.768    -437.157
  H     -214.508      40.637    -438.033
  H     -211.900      43.507    -439.776
  H     -212.872      42.046    -440.075
  H     -212.068      42.282    -438.497
  H     -221.199      44.778    -444.490
  H     -221.786      44.934    -442.852
  H     -222.322      43.603    -443.849

 3  4  5  6  7  8  9  10  11  12  13  24  27  28  29  30  32 0
 6-311+G(2d,p)
 ****
 34  35 0
 6-311+G(2d,p)
 ****
 1  2  14  15  16  17  18  19  20  21  22  23  25  26 0
 3-21G
 ****
 31  33  36  37  38  39  40  41  42  43  44  45  46 0
 3-21G
 ****


