%nproc=1
%NoSave
%Mem=1900MB
#P OB98/GEN NMR

erre ene a

0 1
  C      102.189     155.687      -3.081
  O      103.135     155.509      -4.137
  P      104.692     155.372      -3.787
  C      105.405     156.160      -6.145
  O      105.523     155.158      -5.141
  C      106.131     155.714      -7.418
  O      105.478     154.575      -8.028
  C      106.138     156.785      -8.503
  O      106.929     157.929      -8.263
  C      106.443     155.975      -9.752
  O      107.845     155.744      -9.900
  C      105.703     154.651      -9.454
  N      104.449     154.526     -10.198
  C      104.454     153.630     -11.262
  O      105.452     153.001     -11.609
  N      103.275     153.509     -11.947
  C      102.127     154.204     -11.694
  O      101.104     154.071     -12.354
  C      102.189     155.153     -10.573
  C      103.326     155.269      -9.885
  O      105.027     154.430      -2.680
  O      105.092     156.875      -3.376
  H      107.973     155.278     -10.750
  H      105.691     156.823      -2.606
  H      103.258     152.858     -12.715
  H      101.299     155.726     -10.348
  H      103.393     155.963      -9.055
  H      106.332     153.792      -9.718
  H      106.107     156.491     -10.657
  H      105.109     157.156      -8.612
  H      107.145     155.407      -7.152
  H      105.822     157.100      -5.781
  H      104.343     156.347      -6.338
  P      106.578     159.380      -8.847
  C      108.964     159.860      -9.740
  O      107.921     160.254      -8.876
  O      105.340     160.041      -8.337
  O      106.371     159.050     -10.408
  H      105.690     159.652     -10.761
  H      109.800     160.555      -9.615
  H      108.631     159.896     -10.780
  H      109.308     158.852      -9.490
  H      101.204     155.759      -3.493
  H      102.418     156.584      -2.544
  H      102.236     154.851      -2.415

 3  4  5  6  7  8  9  10  11  12  13  23  28  29  30  31  32 0
 6-311+G(2d,p)
 ****
 33  34 0
 6-311+G(2d,p)
 ****
 1  2  14  15  16  17  18  19  20  21  22  24  25  26  27 0
 3-21G
 ****
 35  36  37  38  39  40  41  42  43  44  45 0
 3-21G
 ****


