%nproc=1
%NoSave
%Mem=1900MB
#P OB98/GEN NMR

erre ene a

0 1
  C       68.719    -349.331     274.100
  O       67.419    -349.379     273.559
  P       67.176    -349.621     271.995
  C       66.031    -351.928     272.081
  O       65.856    -350.532     271.865
  C       65.023    -352.723     271.243
  O       63.690    -352.542     271.813
  C       64.976    -352.265     269.770
  O       65.139    -353.319     268.818
  C       63.657    -351.515     269.694
  O       63.140    -351.392     268.383
  C       62.802    -352.289     270.707
  N       61.606    -351.553     271.108
  C       60.377    -352.164     270.875
  O       60.235    -353.272     270.373
  N       59.270    -351.421     271.193
  C       59.269    -350.121     271.592
  O       58.235    -349.485     271.763
  C       60.594    -349.515     271.782
  C       61.687    -350.248     271.557
  O       68.353    -350.135     271.239
  O       66.647    -348.197     271.486
  H       62.488    -350.664     268.387
  H       65.831    -347.887     271.913
  H       58.375    -351.854     271.028
  H       60.624    -348.478     272.091
  H       62.680    -349.828     271.688
  H       62.492    -353.254     270.311
  H       63.828    -350.498     270.066
  H       65.799    -351.577     269.546
  H       65.291    -353.783     271.318
  H       65.864    -352.145     273.137
  H       67.061    -352.215     271.843
  P       66.435    -353.543     267.906
  C       65.708    -355.831     266.905
  O       66.024    -354.474     266.672
  O       67.661    -353.977     268.642
  O       66.665    -352.111     267.226
  H       67.613    -351.986     267.036
  H       65.951    -356.404     266.007
  H       64.635    -355.922     267.103
  H       66.273    -356.235     267.752
  H       68.660    -349.161     275.155
  H       69.267    -348.535     273.641
  H       69.217    -350.260     273.915

 3  4  5  6  7  8  9  10  11  12  13  23  28  29  30  31  32 0
 6-311+G(2d,p)
 ****
 33  34 0
 6-311+G(2d,p)
 ****
 1  2  14  15  16  17  18  19  20  21  22  24  25  26  27 0
 3-21G
 ****
 35  36  37  38  39  40  41  42  43  44  45 0
 3-21G
 ****


