%nproc=1
%NoSave
%Mem=1900MB
#P OB98/GEN NMR

erre ene a

0 1
  C       42.392    -209.071    -132.663
  O       42.974    -208.283    -133.692
  P       44.431    -207.641    -133.505
  C       44.986    -207.183    -135.975
  O       44.635    -206.609    -134.718
  C       44.958    -206.125    -137.078
  O       43.611    -205.601    -137.187
  C       45.890    -204.947    -136.812
  O       46.439    -204.504    -138.055
  C       44.974    -203.858    -136.281
  O       45.519    -202.551    -136.535
  C       43.670    -204.170    -137.022
  N       40.156    -200.469    -136.436
  C       41.187    -200.599    -137.298
  N       42.094    -201.596    -137.381
  C       41.826    -202.556    -136.481
  C       40.807    -202.567    -135.542
  C       39.944    -201.458    -135.532
  N       38.883    -201.331    -134.660
  N       40.866    -203.710    -134.767
  C       41.887    -204.385    -135.248
  N       42.492    -203.736    -136.289
  O       45.537    -208.626    -133.334
  O       44.289    -206.681    -132.236
  H       46.331    -202.467    -135.992
  H       45.097    -206.716    -131.689
  H       41.302    -199.789    -138.017
  H       42.236    -205.338    -134.874
  H       43.649    -203.711    -138.019
  H       44.857    -203.969    -135.197
  H       46.696    -205.191    -136.111
  H       45.202    -206.609    -138.033
  H       44.259    -207.968    -136.208
  H       38.249    -200.561    -134.810
  H       38.625    -202.139    -134.109
  H       45.978    -207.643    -135.901
  P       48.031    -204.249    -138.071
  C       48.236    -205.995    -139.990
  O       48.499    -204.685    -139.539
  O       48.715    -204.904    -136.913
  O       48.090    -202.646    -138.067
  H       47.268    -202.255    -138.444
  H       48.663    -206.112    -140.993
  H       47.159    -206.165    -140.052
  H       48.694    -206.731    -139.321
  H       41.425    -209.407    -132.975
  H       42.296    -208.483    -131.774
  H       43.017    -209.917    -132.465

 3  4  5  6  7  8  9  10  11  12  22  25  29  30  31  32 0
 6-311+G(2d,p)
 ****
 33  36  37 0
 6-311+G(2d,p)
 ****
 1  2  13  14  15  16  17  18  19  20  21  23  24  26 0
 3-21G
 ****
 27  28  34  35  38  39  40  41  42  43  44  45  46  47  48 0
 3-21G
 ****


