%nproc=1
%NoSave
%Mem=1900MB
#P OB98/GEN NMR

erre ene a

0 1
  C      779.471      28.833    -636.467
  O      779.932      29.421    -635.256
  P      780.635      28.457    -634.184
  C      779.760      26.326    -632.974
  O      779.446      27.610    -633.515
  C      778.506      25.662    -632.415
  O      777.452      25.679    -633.404
  C      778.682      24.198    -632.039
  O      779.267      24.043    -630.756
  C      777.237      23.732    -632.021
  O      776.603      24.134    -630.794
  C      776.640      24.496    -633.201
  N      773.779      21.436    -636.125
  C      773.552      21.988    -634.911
  N      774.370      22.779    -634.202
  C      775.543      22.961    -634.835
  C      775.922      22.418    -636.053
  C      774.984      21.626    -636.721
  N      775.195      21.085    -637.967
  N      777.203      22.818    -636.377
  C      777.578      23.593    -635.380
  N      776.609      23.715    -634.432
  O      781.067      29.466    -633.019
  O      781.791      27.666    -634.710
  H      777.147      23.775    -630.066
  H      781.804      29.084    -632.502
  H      772.583      21.774    -634.477
  H      778.545      24.088    -635.306
  H      775.616      24.831    -633.004
  H      777.149      22.641    -632.085
  H      779.239      23.651    -632.809
  H      778.167      26.241    -631.554
  H      780.484      26.459    -632.167
  H      774.412      20.690    -638.453
  H      776.008      21.408    -638.485
  H      780.216      25.711    -633.756
  P      780.037      22.666    -630.469
  C      779.125      20.231    -630.503
  O      778.886      21.592    -630.178
  O      780.710      22.910    -629.036
  O      781.039      22.300    -631.516
  H      781.495      22.346    -628.932
  H      778.396      19.615    -629.972
  H      780.126      19.925    -630.219
  H      778.990      20.085    -631.581
  H      779.027      29.587    -637.083
  H      778.743      28.081    -636.244
  H      780.296      28.389    -636.985

 3  4  5  6  7  8  9  10  11  12  22  25  29  30  31  32 0
 6-311+G(2d,p)
 ****
 33  36  37 0
 6-311+G(2d,p)
 ****
 1  2  13  14  15  16  17  18  19  20  21  23  24  26 0
 3-21G
 ****
 27  28  34  35  38  39  40  41  42  43  44  45  46  47  48 0
 3-21G
 ****


