%nproc=1
%NoSave
%Mem=1900MB
#P OB98/GEN NMR

erre ene a

0 1
  C      260.923     107.016     228.321
  O      261.767     105.946     227.949
  H      259.922     106.622     228.521
  H      260.858     107.749     227.513
  H      261.301     107.498     229.227
  P      263.262     106.338     227.512
  C      262.849     106.190     224.940
  O      263.065     107.021     226.070
  C      264.169     105.561     224.504
  O      263.961     104.649     223.406
  C      265.203     106.568     224.007
  O      265.865     107.246     225.062
  C      266.141     105.645     223.253
  O      266.959     104.916     224.188
  C      265.133     104.706     222.547
  N      264.768     105.161     221.205
  C      265.710     104.943     220.191
  O      266.788     104.410     220.442
  N      265.421     105.375     218.918
  C      264.288     105.958     218.672
  N      264.059     106.375     217.398
  C      263.261     106.188     219.706
  C      263.563     105.771     220.934
  O      263.928     104.930     227.142
  O      264.041     107.149     228.491
  H      267.448     105.578     224.710
  H      264.818     105.077     226.738
  H      262.337     106.688     219.456
  H      262.858     105.910     221.745
  H      265.534     103.687     222.474
  H      266.817     106.176     222.580
  H      264.766     107.279     223.297
  H      264.559     104.974     225.348
  H      264.807     106.259     216.725
  H      262.437     106.803     224.132
  H      263.295     106.991     217.154
  H      262.135     105.397     225.188
  P      265.710     108.843     225.134
  C      267.190     109.090     223.016
  O      265.960     109.404     223.652
  O      267.022     109.296     225.927
  O      264.457     109.325     225.799
  H      266.827     110.028     226.541
  H      267.210     109.530     222.041
  H      267.286     108.028     222.930
  H      268.001     109.475     223.598

 6  7  8  9  10  11  12  13  14  15  16  26  30  31  32  33  35 0
 6-311+G(2d,p)
 ****
 37  38 0
 6-311+G(2d,p)
 ****
 1  2  3  4  5  17  18  19  20  21  22  23  24  25 0
 3-21G
 ****
 27  28  29  34  36  39  40  41  42  43  44  45  46 0
 3-21G
 ****


