%nproc=1
%NoSave
%Mem=1900MB
#P OB98/GEN NMR

erre ene a

0 1
  C      660.173     196.059     801.228
  O      661.309     195.214     801.303
  H      659.829     196.270     802.242
  H      659.374     195.570     800.671
  H      660.446     197.001     800.740
  P      661.910     194.697     799.908
  C      660.821     192.429     800.594
  O      661.023     193.395     799.573
  C      660.403     191.092     799.974
  O      659.123     191.214     799.321
  C      661.357     190.579     798.893
  O      662.534     189.998     799.418
  C      660.466     189.555     798.228
  O      660.357     188.384     799.066
  C      659.122     190.324     798.175
  N      658.960     191.077     796.929
  C      658.714     190.329     795.777
  O      658.663     189.098     795.810
  N      658.577     190.988     794.570
  C      658.646     192.287     794.533
  N      658.504     192.889     793.327
  C      658.878     193.112     795.733
  C      659.025     192.453     796.879
  O      663.318     194.056     800.324
  O      661.986     195.702     798.812
  H      660.258     188.707     799.986
  H      663.711     193.575     799.559
  H      658.940     194.193     795.649
  H      659.192     192.995     797.804
  H      658.274     189.637     798.284
  H      660.834     189.211     797.260
  H      661.603     191.360     798.164
  H      660.292     190.367     800.788
  H      658.402     192.284     792.507
  H      660.025     192.793     801.262
  H      658.691     193.866     793.170
  H      661.740     192.289     801.179
  P      663.926     190.349     798.692
  C      663.556     188.686     796.713
  O      663.728     190.044     797.134
  O      664.904     189.181     799.176
  O      664.465     191.704     799.013
  H      665.815     189.511     799.274
  H      663.437     188.654     795.650
  H      662.686     188.275     797.181
  H      664.416     188.114     796.993

 6  7  8  9  10  11  12  13  14  15  16  26  30  31  32  33  35 0
 6-311+G(2d,p)
 ****
 37  38 0
 6-311+G(2d,p)
 ****
 1  2  3  4  5  17  18  19  20  21  22  23  24  25 0
 3-21G
 ****
 27  28  29  34  36  39  40  41  42  43  44  45  46 0
 3-21G
 ****


