%nproc=1
%NoSave
%Mem=1900MB
#P OB98/GEN NMR

erre ene a

0 1
  C        3.757      94.634     -12.733
  O        3.338      94.392     -11.404
  H        2.896      94.630     -13.406
  H        4.233      95.616     -12.777
  H        4.480      93.876     -13.046
  P        2.636      92.978     -11.120
  C        0.305      91.977     -11.669
  O        1.263      92.986     -11.950
  C       -1.057      92.374     -12.227
  O       -1.630      93.435     -11.435
  C       -1.032      92.899     -13.658
  O       -0.966      91.844     -14.606
  C       -2.369      93.621     -13.720
  O       -3.428      92.665     -13.919
  C       -2.468      94.231     -12.314
  N       -3.920      99.110     -12.824
  C       -4.614      97.952     -12.873
  N       -4.161      96.693     -12.707
  C       -2.844      96.694     -12.447
  C       -2.006      97.792     -12.344
  C       -2.592      99.052     -12.551
  N       -1.857     100.226     -12.566
  N       -0.709      97.395     -12.083
  C       -0.762      96.081     -12.048
  N       -2.030      95.612     -12.256
  O        2.162      93.117      -9.595
  O        3.507      91.784     -11.322
  H       -4.263      93.170     -13.925
  H        2.822      92.695      -9.015
  H       -5.675      98.050     -13.077
  H        0.087      95.432     -11.881
  H       -3.487      94.187     -11.915
  H       -2.429      94.346     -14.536
  H       -0.225      93.627     -13.806
  H       -1.722      91.504     -12.144
  H        0.226      91.842     -10.585
  H       -2.257     100.947     -13.160
  H       -0.855     100.091     -12.624
  H        0.642      91.039     -12.120
  P        0.152      91.940     -15.753
  C        0.447      93.291     -17.939
  O       -0.347      93.067     -16.782
  O       -0.047      90.572     -16.559
  O        1.554      92.083     -15.267
  H        0.795      90.079     -16.585
  H        0.002      94.062     -18.533
  H        0.506      92.389     -18.511
  H        1.431      93.591     -17.644

 6  7  8  9  10  11  12  13  14  15  25  28  32  33  34  35 0
 6-311+G(2d,p)
 ****
 36  39  40 0
 6-311+G(2d,p)
 ****
 1  2  3  4  5  16  17  18  19  20  21  22  23  24 0
 3-21G
 ****
 26  27  29  30  31  37  38  41  42  43  44  45  46  47  48 0
 3-21G
 ****


