%nproc=1
%NoSave
%Mem=1900MB
#P OB98/GEN NMR

erre ene a

0 1
  C      -35.277     -74.975     -16.180
  O      -34.194     -75.117     -15.281
  H      -36.190     -75.311     -15.682
  H      -35.120     -75.587     -17.072
  H      -35.399     -73.926     -16.465
  P      -32.721     -74.765     -15.799
  C      -32.813     -72.243     -15.228
  O      -32.757     -73.228     -16.254
  C      -31.740     -71.179     -15.446
  O      -31.843     -70.150     -14.442
  C      -30.313     -71.706     -15.356
  O      -29.974     -72.429     -16.522
  C      -29.550     -70.408     -15.146
  O      -29.390     -69.699     -16.384
  C      -30.508     -69.644     -14.200
  N      -30.155     -69.769     -12.789
  C      -28.928     -69.213     -12.411
  O      -28.207     -68.673     -13.249
  N      -28.547     -69.305     -11.095
  C      -29.334     -69.858     -10.228
  N      -28.900     -69.912      -8.941
  C      -30.650     -70.424     -10.579
  C      -30.989     -70.357     -11.864
  O      -32.137     -75.696     -16.816
  O      -31.842     -74.725     -14.462
  H      -28.810     -68.936     -16.187
  H      -31.420     -75.590     -14.305
  H      -31.279     -70.867      -9.821
  H      -31.941     -70.750     -12.207
  H      -30.525     -68.576     -14.453
  H      -28.552     -70.575     -14.742
  H      -30.193     -72.325     -14.461
  H      -31.925     -70.708     -16.421
  H      -27.997     -69.491      -8.744
  H      -32.642     -72.759     -14.277
  H      -29.488     -70.168      -8.162
  H      -33.804     -71.777     -15.193
  P      -28.586     -73.223     -16.643
  C      -29.351     -75.237     -15.241
  O      -28.479     -74.120     -15.316
  O      -27.393     -72.376     -16.927
  O      -28.876     -74.316     -17.775
  H      -28.850     -73.899     -18.672
  H      -29.189     -75.754     -14.319
  H      -29.155     -75.898     -16.060
  H      -30.366     -74.901     -15.288

 6  7  8  9  10  11  12  13  14  15  16  26  30  31  32  33  35 0
 6-311+G(2d,p)
 ****
 37  38 0
 6-311+G(2d,p)
 ****
 1  2  3  4  5  17  18  19  20  21  22  23  24  25 0
 3-21G
 ****
 27  28  29  34  36  39  40  41  42  43  44  45  46 0
 3-21G
 ****


