%nproc=1
%NoSave
%Mem=1900MB
#P OB98/GEN NMR

erre ene a

0 1
  C      394.991    -308.586    -402.636
  O      394.561    -308.313    -403.976
  P      395.567    -308.604    -405.199
  C      394.471    -310.788    -406.128
  O      395.583    -310.180    -405.487
  C      394.939    -311.912    -407.056
  O      395.694    -311.366    -408.167
  C      395.879    -312.914    -406.402
  O      395.178    -313.828    -405.568
  C      396.518    -313.570    -407.614
  O      395.669    -314.606    -408.149
  C      396.616    -312.389    -408.604
  N      397.973    -311.866    -408.716
  C      398.423    -311.578    -409.999
  O      397.755    -311.795    -411.011
  N      399.689    -311.056    -410.088
  C      400.553    -310.865    -409.047
  O      401.680    -310.411    -409.195
  C      400.055    -311.268    -407.722
  C      398.813    -311.745    -407.622
  O      397.001    -308.377    -404.505
  O      395.409    -307.719    -406.392
  H      394.756    -314.257    -408.127
  H      397.645    -308.095    -405.183
  H      400.021    -310.813    -411.010
  H      400.719    -311.152    -406.875
  H      398.429    -312.049    -406.652
  H      396.281    -312.699    -409.600
  H      397.481    -314.038    -407.382
  H      396.655    -312.387    -405.829
  H      394.056    -312.414    -407.459
  H      393.940    -310.036    -406.721
  H      393.785    -311.180    -405.365
  P      395.513    -313.770    -403.998
  C      392.956    -313.288    -403.715
  O      394.283    -312.994    -403.326
  O      396.730    -312.730    -403.982
  O      395.837    -315.110    -403.422
  H      396.637    -312.046    -404.672
  H      392.840    -314.342    -403.973
  H      392.685    -312.671    -404.577
  H      392.295    -313.056    -402.880
  H      394.207    -308.338    -401.952
  H      395.858    -307.999    -402.413
  H      395.230    -309.625    -402.543

 3  4  5  6  7  8  9  10  11  12  13  23  28  29  30  31  32 0
 6-311+G(2d,p)
 ****
 33  34 0
 6-311+G(2d,p)
 ****
 1  2  14  15  16  17  18  19  20  21  22  24  25  26 0
 3-21G
 ****
 27  35  36  37  38  39  40  41  42  43  44  45 0
 3-21G
 ****


