%nproc=1
%NoSave
%Mem=1900MB
#P OB98/GEN NMR

erre ene a

0 1
  C       43.286    -101.647    -114.537
  O       44.038    -102.802    -114.856
  H       43.085    -101.613    -113.463
  H       43.865    -100.764    -114.815
  H       42.344    -101.643    -115.094
  P       43.345    -104.216    -114.549
  C       43.406    -103.727    -112.002
  O       43.773    -104.607    -113.053
  C       43.695    -104.374    -110.651
  O       43.577    -103.397    -109.597
  C       42.746    -105.505    -110.269
  O       43.091    -106.723    -110.911
  C       42.982    -105.579    -108.769
  O       44.201    -106.297    -108.503
  C       43.151    -104.098    -108.398
  N       41.015    -101.570    -104.498
  C       42.282    -101.979    -104.722
  N       42.780    -102.629    -105.794
  C       41.819    -102.834    -106.709
  C       40.489    -102.457    -106.634
  C       40.088    -101.798    -105.460
  N       38.770    -101.443    -105.215
  N       39.803    -102.857    -107.764
  C       40.700    -103.481    -108.497
  N       41.933    -103.487    -107.905
  O       44.185    -105.228    -115.465
  O       41.884    -104.285    -114.844
  H       44.097    -107.182    -108.900
  H       43.702    -105.383    -116.297
  H       42.992    -101.760    -103.931
  H       40.503    -103.944    -109.454
  H       43.930    -103.947    -107.643
  H       42.180    -106.094    -108.233
  H       41.700    -105.233    -110.454
  H       44.734    -104.725    -110.661
  H       42.337    -103.500    -112.072
  H       38.534    -101.427    -104.227
  H       38.099    -101.873    -105.839
  H       43.974    -102.799    -112.108
  P       41.944    -107.487    -111.730
  C       41.182    -108.994    -109.772
  O       41.789    -108.936    -111.055
  O       42.652    -107.794    -113.133
  O       40.679    -106.722    -111.920
  H       42.118    -107.419    -113.860
  H       41.142    -110.011    -109.442
  H       40.190    -108.598    -109.829
  H       41.757    -108.416    -109.079

 6  7  8  9  10  11  12  13  14  15  25  28  32  33  34  35 0
 6-311+G(2d,p)
 ****
 36  39  40 0
 6-311+G(2d,p)
 ****
 1  2  3  4  5  16  17  18  19  20  21  22  23  24 0
 3-21G
 ****
 26  27  29  30  31  37  38  41  42  43  44  45  46  47  48 0
 3-21G
 ****


