%nproc=1
%NoSave
%Mem=1900MB
#P OB98/GEN NMR

erre ene a

0 1
  C      -63.060      40.379      24.075
  O      -64.333      40.985      23.994
  H      -62.680      40.505      25.093
  H      -62.364      40.858      23.383
  H      -63.127      39.310      23.858
  P      -65.112      40.942      22.591
  C      -64.472      41.671      20.189
  O      -64.096      41.639      21.557
  C      -63.463      42.483      19.383
  O      -63.515      43.882      19.735
  C      -62.005      42.090      19.599
  O      -61.645      40.866      18.982
  C      -61.316      43.283      18.962
  O      -61.384      43.173      17.530
  C      -62.196      44.443      19.481
  N      -61.659      45.060      20.693
  C      -60.815      46.162      20.513
  O      -60.544      46.570      19.385
  N      -60.265      46.762      21.622
  C      -60.517      46.288      22.802
  N      -59.940      46.917      23.864
  C      -61.383      45.117      23.035
  C      -61.917      44.560      21.951
  O      -66.501      41.493      22.596
  O      -65.034      39.410      22.135
  H      -61.060      42.284      17.298
  H      -65.512      39.327      21.275
  H      -61.538      44.744      24.036
  H      -62.560      43.691      22.040
  H      -62.315      45.217      18.712
  H      -60.261      43.364      19.230
  H      -61.758      42.076      20.668
  H      -63.748      42.405      18.326
  H      -59.351      47.716      23.673
  H      -65.473      42.109      20.120
  H      -60.019      46.571      24.811
  H      -64.500      40.655      19.784
  P      -60.751      39.849      19.850
  C      -58.295      39.895      20.739
  O      -59.275      40.469      19.889
  O      -60.618      38.578      18.892
  O      -61.308      39.502      21.195
  H      -61.260      37.886      19.143
  H      -57.375      40.432      20.637
  H      -58.142      38.872      20.467
  H      -58.628      39.948      21.754

 6  7  8  9  10  11  12  13  14  15  16  26  30  31  32  33  35 0
 6-311+G(2d,p)
 ****
 37  38 0
 6-311+G(2d,p)
 ****
 1  2  3  4  5  17  18  19  20  21  22  23  24  25 0
 3-21G
 ****
 27  28  29  34  36  39  40  41  42  43  44  45  46 0
 3-21G
 ****


