%nproc=1
%NoSave
%Mem=1900MB
#P OB98/GEN NMR

erre ene a

0 1
  C      331.496     712.386    -271.942
  O      331.017     711.052    -271.918
  P      330.083     710.575    -273.146
  C      328.050     709.887    -271.696
  O      329.093     709.459    -272.556
  C      327.460     708.708    -270.903
  O      326.906     707.749    -271.847
  C      328.480     707.977    -270.030
  O      327.817     707.574    -268.827
  C      328.819     706.735    -270.839
  O      329.295     705.680    -270.004
  C      327.490     706.464    -271.544
  N      327.642     705.657    -272.742
  C      327.403     704.279    -272.622
  O      327.155     703.790    -271.521
  N      327.508     703.485    -273.744
  C      327.933     704.001    -274.852
  N      328.011     703.175    -275.938
  C      328.308     705.427    -274.995
  C      328.125     706.185    -273.917
  O      331.103     709.733    -274.047
  O      329.445     711.692    -273.899
  H      328.555     705.366    -269.437
  H      330.874     709.805    -274.998
  H      328.685     705.795    -275.941
  H      328.360     707.254    -273.934
  H      326.786     705.940    -270.858
  H      329.594     706.973    -271.574
  H      329.353     708.590    -269.771
  H      326.631     709.084    -270.299
  H      327.765     702.204    -275.807
  H      327.242     710.321    -272.289
  H      328.328     703.494    -276.844
  H      328.422     710.657    -271.007
  P      328.473     708.009    -267.430
  C      327.497     706.054    -266.070
  O      327.471     707.446    -266.305
  O      328.146     709.578    -267.390
  O      329.927     707.759    -267.221
  H      328.558     709.983    -266.601
  H      326.881     705.827    -265.198
  H      328.525     705.714    -265.873
  H      327.093     705.512    -266.939
  H      332.097     712.565    -271.075
  H      330.667     713.063    -271.947
  H      332.085     712.538    -272.822

 3  4  5  6  7  8  9  10  11  12  13  21  23  27  28  29  30  32 0
 6-311+G(2d,p)
 ****
 34  35 0
 6-311+G(2d,p)
 ****
 1  2  14  15  16  17  18  19  20  22  24  25  26 0
 3-21G
 ****
 31  33  36  37  38  39  40  41  42  43  44  45  46 0
 3-21G
 ****


