%nproc=1
%NoSave
%Mem=1900MB
#P OB98/GEN NMR

erre ene a

0 1
  C     -239.864      94.434     -42.963
  O     -238.523      94.619     -42.545
  H     -240.389      93.853     -42.199
  H     -239.907      93.892     -43.910
  H     -240.359      95.404     -43.065
  P     -237.474      95.199     -43.612
  C     -236.405      92.868     -43.903
  O     -237.076      93.948     -44.542
  C     -235.246      92.354     -44.749
  O     -235.725      91.797     -45.995
  C     -234.249      93.427     -45.163
  O     -233.508      93.984     -44.102
  C     -233.514      92.751     -46.308
  O     -232.477      91.882     -45.856
  C     -234.651      91.922     -46.955
  N     -235.118      92.504     -48.212
  C     -234.323      92.265     -49.324
  O     -233.268      91.630     -49.288
  N     -234.763      92.824     -50.500
  C     -235.869      93.611     -50.649
  O     -236.196      94.094     -51.726
  C     -236.650      93.856     -49.424
  C     -236.249      93.301     -48.280
  O     -236.294      95.923     -43.033
  O     -238.370      96.102     -44.582
  H     -232.296      91.254     -46.577
  H     -237.808      96.707     -45.129
  H     -234.205      92.647     -51.323
  H     -237.524      94.485     -49.507
  H     -236.811      93.463     -47.362
  H     -234.307      90.900     -47.169
  H     -233.055      93.473     -46.993
  H     -234.809      94.262     -45.607
  H     -234.748      91.544     -44.198
  H     -237.133      92.058     -43.759
  H     -236.041      93.195     -42.922
  P     -233.088      95.521     -44.021
  C     -230.812      95.042     -45.226
  O     -232.009      95.815     -45.175
  O     -232.829      96.079     -42.664
  O     -234.404      96.253     -44.607
  H     -234.494      97.105     -44.137
  H     -230.212      95.368     -46.050
  H     -231.060      94.009     -45.352
  H     -230.266      95.169     -44.315

 6  7  8  9  10  11  12  13  14  15  16  26  31  32  33  34  35 0
 6-311+G(2d,p)
 ****
 36  37 0
 6-311+G(2d,p)
 ****
 1  2  3  4  5  17  18  19  20  21  22  23  24  25 0
 3-21G
 ****
 27  28  29  30  38  39  40  41  42  43  44  45 0
 3-21G
 ****


