%nproc=1
%NoSave
%Mem=1900MB
#P OB98/GEN NMR

erre ene a

0 1
  C      174.635     106.921      61.078
  O      173.986     108.046      61.656
  P      172.620     108.560      60.989
  C      170.247     107.535      60.780
  O      171.643     107.289      60.885
  C      169.528     106.359      60.120
  O      169.881     106.318      58.710
  C      169.872     104.988      60.712
  O      168.696     104.174      60.611
  C      170.926     104.458      59.759
  O      171.050     103.040      59.825
  C      170.392     104.997      58.433
  N      173.159     102.285      55.097
  C      172.184     101.924      55.959
  N      171.493     102.704      56.815
  C      171.901     103.983      56.726
  C      172.905     104.493      55.922
  C      173.551     103.582      55.068
  N      174.537     103.948      54.183
  N      173.051     105.848      56.131
  C      172.154     106.152      57.045
  N      171.419     105.062      57.417
  O      173.051     108.826      59.472
  O      172.029     109.779      61.610
  H      170.153     102.653      59.818
  H      173.033     109.786      59.284
  H      171.920     100.870      55.955
  H      171.999     107.136      57.468
  H      169.565     104.390      58.043
  H      171.899     104.895      60.004
  H      170.220     105.024      61.749
  H      168.447     106.541      60.175
  H      170.094     108.427      60.167
  H      174.853     103.268      53.512
  H      174.703     104.937      54.019
  H      169.832     107.722      61.775
  P      168.508     103.028      61.716
  C      167.994     103.089      64.257
  O      168.559     103.751      63.142
  O      169.889     102.218      61.649
  O      167.334     102.135      61.476
  H      169.745     101.293      61.923
  H      168.571     103.344      65.149
  H      167.999     102.001      64.132
  H      166.963     103.429      64.391
  H      175.525     106.701      61.629
  H      174.889     107.139      60.062
  H      173.979     106.076      61.108

 3  4  5  6  7  8  9  10  11  12  22  25  29  30  31  32 0
 6-311+G(2d,p)
 ****
 33  36  37 0
 6-311+G(2d,p)
 ****
 1  2  13  14  15  16  17  18  19  20  21  23  24  26 0
 3-21G
 ****
 27  28  34  35  38  39  40  41  42  43  44  45  46  47  48 0
 3-21G
 ****


