%nproc=1
%NoSave
%Mem=1900MB
#P OB98/GEN NMR

erre ene a

0 1
  C     -105.431     254.342     583.214
  O     -104.979     253.331     584.100
  P     -103.478     252.798     583.942
  C     -102.231     251.158     582.342
  O     -103.428     251.864     582.655
  C     -102.582     249.760     581.786
  O     -103.539     249.872     580.715
  C     -101.375     249.032     581.191
  O     -100.578     248.461     582.224
  C     -102.061     248.005     580.306
  O     -102.472     246.850     581.068
  C     -103.291     248.780     579.798
  N     -103.146     249.232     578.414
  C     -103.885     248.571     577.467
  O     -104.649     247.625     577.741
  N     -103.742     248.992     576.179
  C     -102.873     249.957     575.742
  O     -102.739     250.247     574.557
  C     -102.076     250.616     576.792
  C     -102.225     250.236     578.055
  O     -103.283     251.795     585.153
  O     -102.445     253.881     583.934
  H     -102.952     246.263     580.445
  H     -102.364     251.849     585.510
  H     -104.292     248.545     575.472
  H     -101.390     251.388     576.479
  H     -101.647     250.682     578.855
  H     -104.185     248.140     579.850
  H     -101.406     247.639     579.519
  H     -100.800     249.722     580.568
  H     -103.035     249.173     582.598
  H     -101.631     251.045     583.241
  H     -101.663     251.745     581.596
  P      -99.081     249.049     582.378
  C      -96.881     248.707     580.993
  O      -98.262     248.422     581.120
  O      -98.565     248.260     583.663
  O      -99.051     250.533     582.530
  H      -98.957     247.363     583.709
  H      -96.386     248.766     581.968
  H      -96.751     249.638     580.452
  H      -96.423     247.900     580.417
  H     -106.446     254.590     583.444
  H     -105.370     253.987     582.207
  H     -104.818     255.212     583.323

 3  4  5  6  7  8  9  10  11  12  13  23  28  29  30  31  32 0
 6-311+G(2d,p)
 ****
 33  34 0
 6-311+G(2d,p)
 ****
 1  2  14  15  16  17  18  19  20  21  22  24  25  26 0
 3-21G
 ****
 27  35  36  37  38  39  40  41  42  43  44  45 0
 3-21G
 ****


