%nproc=1
%NoSave
%Mem=1900MB
#P OB98/GEN NMR

erre ene a

0 1
  C     -300.006     489.193     962.011
  O     -301.216     489.279     961.292
  H     -299.520     490.176     961.999
  H     -299.339     488.472     961.534
  H     -300.183     488.911     963.053
  P     -302.268     488.074     961.385
  C     -301.475     486.541     959.475
  O     -301.491     486.765     960.872
  C     -302.329     485.313     959.128
  O     -303.722     485.615     959.468
  C     -302.285     484.924     957.632
  O     -302.383     483.500     957.532
  C     -303.550     485.582     957.118
  O     -303.977     485.020     955.901
  C     -304.500     485.345     958.292
  N     -305.685     486.194     958.201
  C     -306.790     485.675     957.534
  O     -306.810     484.552     957.031
  N     -307.861     486.513     957.412
  C     -307.895     487.827     957.772
  O     -308.860     488.550     957.550
  C     -306.677     488.345     958.412
  C     -305.647     487.522     958.601
  O     -303.593     488.309     960.737
  O     -302.402     487.791     962.963
  H     -304.208     484.080     956.027
  H     -303.239     487.321     963.152
  H     -308.678     486.141     956.941
  H     -306.664     489.395     958.698
  H     -304.735     487.867     959.058
  H     -304.823     484.293     958.334
  H     -303.385     486.651     956.957
  H     -301.379     485.270     957.132
  H     -302.021     484.477     959.772
  H     -300.437     486.373     959.160
  H     -301.865     487.425     958.955
  P     -301.142     482.597     957.048
  C     -301.523     482.221     954.528
  O     -300.767     482.931     955.520
  O     -301.307     481.138     957.332
  O     -299.896     483.174     957.872
  H     -299.376     482.428     958.237
  H     -301.196     482.515     953.552
  H     -302.562     482.450     954.640
  H     -301.374     481.169     954.652

 6  7  8  9  10  11  12  13  14  15  16  26  31  32  33  34  35 0
 6-311+G(2d,p)
 ****
 36  37 0
 6-311+G(2d,p)
 ****
 1  2  3  4  5  17  18  19  20  21  22  23  24  25 0
 3-21G
 ****
 27  28  29  30  38  39  40  41  42  43  44  45 0
 3-21G
 ****


