%nproc=1
%NoSave
%Mem=1900MB
#P OB98/GEN NMR

erre ene a

0 1
  C      189.535    -295.387     200.345
  O      188.692    -296.186     199.536
  H      188.968    -295.041     201.211
  H      189.884    -294.516     199.779
  H      190.394    -295.971     200.691
  P      189.353    -296.805     198.210
  C      189.364    -294.727     196.632
  O      188.753    -295.963     196.985
  C      188.746    -294.176     195.344
  O      188.989    -295.135     194.263
  C      187.223    -293.969     195.408
  O      186.881    -292.900     194.515
  C      186.706    -295.284     194.852
  O      185.340    -295.194     194.526
  C      187.704    -295.486     193.715
  N      185.232    -298.937     190.851
  C      184.970    -297.635     191.120
  N      185.679    -296.780     191.881
  C      186.780    -297.377     192.373
  C      187.185    -298.689     192.180
  C      186.352    -299.488     191.374
  N      186.612    -300.812     191.111
  N      188.370    -298.939     192.853
  C      188.672    -297.799     193.439
  N      187.738    -296.831     193.185
  O      188.637    -298.232     198.079
  O      190.840    -296.922     198.228
  H      184.840    -294.750     195.246
  H      189.198    -298.923     198.478
  H      184.066    -297.235     190.666
  H      189.545    -297.622     194.064
  H      187.503    -294.807     192.872
  H      186.798    -296.086     195.599
  H      186.866    -293.733     196.418
  H      189.268    -293.251     195.063
  H      190.441    -294.895     196.492
  H      189.216    -294.002     197.442
  H      185.954    -301.325     190.539
  H      187.434    -301.246     191.507
  P      186.997    -291.379     195.035
  C      184.721    -291.522     196.330
  O      185.517    -290.844     195.374
  O      187.328    -290.592     193.671
  O      188.039    -291.122     196.064
  H      187.836    -289.784     193.882
  H      183.777    -291.027     196.423
  H      185.220    -291.519     197.276
  H      184.565    -292.532     196.012

 6  7  8  9  10  11  12  13  14  15  25  28  32  33  34  35 0
 6-311+G(2d,p)
 ****
 36  37  40 0
 6-311+G(2d,p)
 ****
 1  2  3  4  5  16  17  18  19  20  21  22  23  24 0
 3-21G
 ****
 26  27  29  30  31  38  39 41  42  43  44  45  46  47  48 0
 3-21G
 ****


