%nproc=1
%NoSave
%Mem=1900MB
#P OB98/GEN NMR

erre ene a

0 1
  C       59.880       5.029     382.450
  O       58.650       5.116     381.728
  P       58.682       5.234     380.130
  C       56.418       6.493     380.108
  O       57.183       5.411     379.583
  C       54.930       6.261     379.833
  O       54.318       5.451     380.865
  C       54.119       7.559     379.831
  O       54.342       8.448     378.753
  C       52.699       7.051     380.033
  O       52.114       6.618     378.803
  C       52.934       5.845     380.972
  N       52.568       6.137     382.364
  C       51.241       5.914     382.713
  O       50.391       5.534     381.906
  N       50.910       6.177     384.013
  C       51.757       6.659     384.973
  O       51.402       6.899     386.123
  C       53.143       6.900     384.543
  C       53.481       6.632     383.277
  O       59.502       4.210     379.419
  O       59.303       6.702     379.901
  H       51.976       7.417     378.255
  H       59.928       6.648     379.150
  H       49.958       6.007     384.289
  H       53.836       7.292     385.274
  H       54.498       6.801     382.942
  H       52.334       4.983     380.651
  H       52.048       7.829     380.442
  H       54.384       8.117     380.737
  H       54.828       5.724     378.888
  H       56.747       7.431     379.656
  H       56.615       6.580     381.183
  P       54.850       9.957     378.951
  C       52.700      11.092     378.041
  O       54.091      10.886     377.887
  O       56.318      10.165     379.123
  O       54.111      10.360     380.321
  H       54.694      10.981     380.815
  H       52.350      11.736     377.223
  H       52.493      11.592     378.989
  H       52.163      10.140     377.988
  H       59.674       4.957     383.498
  H       60.467       5.904     382.261
  H       60.420       4.162     382.132

 3  4  5  6  7  8  9  10  11  12  13  23  28  29  30  31  32 0
 6-311+G(2d,p)
 ****
 33  34 0
 6-311+G(2d,p)
 ****
 1  2  14  15  16  17  18  19  20  21  22  24  25  26  27 0
 3-21G
 ****
 35  36  37  38  39  40  41  42  43  44  45 0
 3-21G
 ****


