%nproc=1
%NoSave
%Mem=1900MB
#P OB98/GEN NMR

erre ene a

0 1
  C     -443.866     -57.318    -473.629
  O     -444.725     -57.912    -472.679
  H     -444.406     -57.219    -474.575
  H     -442.990     -57.952    -473.793
  H     -443.552     -56.324    -473.301
  P     -444.235     -58.020    -471.155
  C     -446.529     -57.379    -470.166
  O     -445.156     -57.025    -470.296
  C     -447.405     -56.179    -470.525
  O     -447.173     -55.790    -471.897
  C     -448.901     -56.461    -470.431
  O     -449.342     -56.492    -469.085
  C     -449.460     -55.326    -471.267
  O     -449.549     -54.114    -470.505
  C     -448.396     -55.191    -472.382
  N     -448.831     -55.818    -473.632
  C     -449.693     -55.070    -474.428
  O     -450.077     -53.936    -474.135
  N     -450.153     -55.692    -475.556
  C     -449.952     -57.004    -475.882
  O     -450.578     -57.585    -476.763
  C     -448.987     -57.724    -475.039
  C     -448.491     -57.114    -473.963
  O     -442.768     -57.877    -470.938
  O     -444.756     -59.468    -470.699
  H     -444.008     -60.094    -470.711
  H     -448.620     -53.831    -470.353
  H     -450.812     -55.169    -476.118
  H     -448.740     -58.749    -475.306
  H     -447.794     -57.639    -473.307
  H     -448.178     -54.135    -472.579
  H     -450.459     -55.559    -471.641
  H     -449.128     -57.412    -470.922
  H     -447.122     -55.339    -469.879
  H     -446.719     -57.669    -469.127
  H     -446.744     -58.226    -470.823
  P     -449.708     -57.885    -468.389
  C     -448.536     -57.665    -466.112
  O     -448.518     -58.289    -467.394
  O     -450.138     -58.971    -469.327
  O     -450.896     -57.507    -467.378
  H     -451.637     -58.133    -467.519
  H     -447.701     -58.007    -465.537
  H     -449.445     -57.916    -465.606
  H     -448.476     -56.603    -466.231

 6  7  8  9  10  11  12  13  14  15  16  27  31  32  33  34  35 0
 6-311+G(2d,p)
 ****
 36  37 0
 6-311+G(2d,p)
 ****
 1  2  3  4  5  17  18  19  20  21  22  23  24  25 0
 3-21G
 ****
 26  28  29  30  38  39  40  41  42  43  44  45 0
 3-21G
 ****


