%nproc=1
%NoSave
%Mem=1900MB
#P OB98/GEN NMR

erre ene a

0 1
  C      211.611      23.873     419.023
  O      212.801      23.092     418.958
  P      214.020      23.472     419.925
  C      215.919      23.124     418.117
  O      215.370      22.819     419.379
  C      217.341      22.543     418.030
  O      218.169      23.087     419.079
  C      217.381      21.025     418.169
  O      217.181      20.371     416.928
  C      218.760      20.800     418.755
  O      219.763      20.902     417.727
  C      218.868      21.991     419.736
  N      218.313      21.824     421.096
  C      219.013      21.084     422.045
  O      220.092      20.532     421.835
  N      218.436      20.995     423.284
  C      217.348      21.692     423.720
  O      216.912      21.620     424.862
  C      216.734      22.577     422.725
  C      217.222      22.593     421.485
  O      213.713      22.654     421.263
  O      214.166      24.939     420.187
  H      219.664      21.779     417.314
  H      213.540      23.266     422.003
  H      218.893      20.404     423.962
  H      215.896      23.186     423.041
  H      216.773      23.247     420.740
  H      219.914      22.297     419.859
  H      218.855      19.799     419.173
  H      216.645      20.692     418.907
  H      217.776      22.840     417.067
  H      215.949      24.204     417.954
  H      215.289      22.700     417.329
  P      215.750      19.741     416.582
  C      216.259      17.648     415.185
  O      215.929      19.024     415.156
  O      214.582      20.659     416.701
  O      215.639      18.491     417.583
  H      215.132      18.737     418.391
  H      216.197      17.250     414.170
  H      215.564      17.101     415.827
  H      217.282      17.522     415.551
  H      210.898      23.495     418.321
  H      211.839      24.891     418.786
  H      211.203      23.819     420.010

 3  4  5  6  7  8  9  10  11  12  13  23  28  29  30  31  32 0
 6-311+G(2d,p)
 ****
 33  34 0
 6-311+G(2d,p)
 ****
 1  2  14  15  16  17  18  19  20  21  22  24  25  26  27 0
 3-21G
 ****
 35  36  37  38  39  40  41  42  43  44  45 0
 3-21G
 ****


