%nproc=1
%NoSave
%Mem=1900MB
#P OB98/GEN NMR

erre ene a

0 1
  C     -100.470     313.382     196.356
  O     -100.192     312.441     195.338
  H     -100.216     314.380     195.985
  H      -99.866     313.176     197.242
  H     -101.532     313.367     196.614
  P     -100.479     310.889     195.635
  C      -99.644     309.319     197.524
  O      -99.407     310.501     196.771
  C      -98.319     308.673     197.922
  O      -97.649     308.096     196.781
  C      -97.292     309.633     198.520
  O      -97.595     310.040     199.843
  C      -96.052     308.762     198.455
  O      -96.097     307.773     199.501
  C      -96.220     308.113     197.060
  N      -95.499     308.837     196.011
  C      -94.111     308.691     195.988
  O      -93.539     307.988     196.823
  N      -93.384     309.366     195.035
  C      -93.995     310.144     194.193
  N      -93.227     310.799     193.276
  C      -95.457     310.348     194.196
  C      -96.139     309.670     195.115
  O     -100.503     309.985     194.442
  O     -101.846     310.884     196.468
  H      -96.293     308.252     200.330
  H     -102.073     309.941     196.668
  H      -95.913     311.028     193.493
  H      -97.220     309.769     195.184
  H      -95.882     307.068     197.069
  H      -95.123     309.323     198.577
  H      -97.141     310.503     197.870
  H      -98.548     307.850     198.611
  H      -92.231     310.642     193.303
  H     -100.244     308.638     196.908
  H      -93.607     311.483     192.633
  H     -100.200     309.559     198.433
  P      -97.272     311.572     200.228
  C      -95.065     312.898     200.677
  O      -95.694     311.640     200.515
  O      -97.940     311.728     201.672
  O      -97.764     312.589     199.248
  H      -98.812     312.157     201.602
  H      -94.021     312.754     200.860
  H      -95.504     313.412     201.506
  H      -95.195     313.479     199.788

 6  7  8  9  10  11  12  13  14  15  16  26  30  31  32  33  35 0
 6-311+G(2d,p)
 ****
 37  38 0
 6-311+G(2d,p)
 ****
 1  2  3  4  5  17  18  19  20  21  22  23  24  25 0
 3-21G
 ****
 27  28  29  34  36  39  40  41  42  43  44  45  46 0
 3-21G
 ****


