%nproc=1
%NoSave
%Mem=1900MB
#P OB98/GEN NMR

erre ene a

0 1
  C      336.950    -207.513    -691.987
  O      338.344    -207.435    -691.600
  P      338.799    -208.043    -690.180
  C      339.518    -210.382    -691.111
  O      338.676    -209.650    -690.235
  C      340.091    -211.596    -690.386
  O      339.037    -212.496    -689.986
  C      341.038    -212.444    -691.224
  O      342.328    -211.853    -691.343
  C      341.046    -213.755    -690.438
  O      341.985    -213.694    -689.340
  C      339.595    -213.827    -689.915
  N      338.785    -214.790    -690.660
  C      338.676    -216.071    -690.128
  O      339.279    -216.421    -689.108
  N      337.902    -216.948    -690.820
  C      337.262    -216.697    -692.013
  O      336.599    -217.545    -692.598
  C      337.479    -215.368    -692.576
  C      338.223    -214.485    -691.888
  O      337.561    -207.654    -689.245
  O      340.075    -207.499    -689.625
  H      341.782    -212.865    -688.863
  H      337.869    -207.552    -688.319
  H      337.782    -217.880    -690.436
  H      337.012    -215.123    -693.536
  H      338.383    -213.502    -692.299
  H      339.585    -214.114    -688.863
  H      341.353    -214.608    -691.053
  H      340.591    -212.626    -692.215
  H      340.610    -211.253    -689.468
  H      340.342    -209.731    -691.443
  H      338.942    -210.693    -691.996
  P      342.861    -211.580    -692.834
  C      342.297    -209.036    -692.645
  O      342.105    -210.264    -693.313
  O      342.156    -212.786    -693.622
  O      344.354    -211.568    -692.927
  H      341.277    -213.002    -693.264
  H      343.310    -208.951    -692.218
  H      341.563    -208.961    -691.820
  H      342.125    -208.194    -693.335
  H      336.822    -207.066    -692.951
  H      336.351    -206.992    -691.270
  H      336.648    -208.539    -692.027

 3  4  5  6  7  8  9  10  11  12  13  23  28  29  30  31  32 0
 6-311+G(2d,p)
 ****
 33  34 0
 6-311+G(2d,p)
 ****
 1  2  14  15  16  17  18  19  20  21  22  24  25  26 0
 3-21G
 ****
 27  35  36  37  38  39  40  41  42  43  44  45 0
 3-21G
 ****


