%nproc=1
%NoSave
%Mem=1900MB
#P OB98/GEN NMR

erre ene a

0 1
  C       73.366     -11.597     141.522
  O       73.778     -12.743     142.280
  P       74.443     -13.970     141.493
  C       72.182     -15.260     141.484
  O       73.286     -14.776     140.730
  C       71.207     -16.022     140.579
  O       71.816     -17.196     140.006
  C       69.966     -16.522     141.302
  O       68.989     -15.498     141.430
  C       69.479     -17.597     140.344
  O       68.770     -16.989     139.246
  C       70.796     -18.209     139.848
  N       70.640     -23.330     139.942
  C       70.106     -22.425     139.091
  N       70.176     -21.079     139.142
  C       70.899     -20.681     140.199
  C       71.505     -21.485     141.153
  C       71.355     -22.871     140.997
  N       71.905     -23.786     141.868
  N       72.154     -20.717     142.099
  C       71.955     -19.470     141.714
  N       71.197     -19.400     140.577
  O       74.869     -14.967     142.673
  O       75.616     -13.585     140.652
  H       68.771     -17.634     138.514
  H       75.695     -15.428     142.432
  H       69.549     -22.840     138.256
  H       72.343     -18.597     142.221
  H       70.757     -18.478     138.785
  H       68.791     -18.303     140.817
  H       70.228     -16.969     142.270
  H       70.913     -15.352     139.760
  H       71.670     -14.428     141.972
  H       71.778     -24.767     141.677
  H       72.458     -23.451     142.642
  H       72.555     -15.904     142.288
  P       68.789     -14.853     142.886
  C       66.633     -16.253     143.265
  O       67.931     -15.918     143.718
  O       67.763     -13.655     142.609
  O       70.049     -14.376     143.526
  H       67.918     -12.929     143.244
  H       66.323     -17.185     143.746
  H       66.618     -16.399     142.180
  H       65.933     -15.461     143.541
  H       72.944     -10.867     142.180
  H       72.634     -11.892     140.799
  H       74.213     -11.178     141.021

 3  4  5  6  7  8  9  10  11  12  22  25  29  30  31  32 0
 6-311+G(2d,p)
 ****
 33  36  37 0
 6-311+G(2d,p)
 ****
 1  2  13  14  15  16  17  18  19  20  21  23  24  26 0
 3-21G
 ****
 27  28  34  35  38  39  40  41  42  43  44  45  46  47  48 0
 3-21G
 ****


