%nproc=1
%NoSave
%Mem=1900MB
#P OB98/GEN NMR

erre ene a

0 1
  C      154.477      36.439     401.549
  O      155.509      37.272     401.057
  H      153.695      36.360     400.788
  H      154.045      36.878     402.452
  H      154.862      35.439     401.766
  P      156.853      37.329     401.926
  C      157.875      35.270     400.663
  O      157.500      35.856     401.902
  C      159.395      35.265     400.526
  O      159.903      36.610     400.414
  C      160.129      34.704     401.732
  O      160.011      33.301     401.836
  C      161.548      35.173     401.442
  O      162.233      34.275     400.561
  C      161.308      36.539     400.756
  N      161.729      37.645     401.596
  C      162.870      38.329     401.158
  O      163.431      37.992     400.114
  N      163.363      39.347     401.930
  C      162.787      39.639     403.055
  N      163.346      40.638     403.790
  C      161.584      38.943     403.554
  C      161.113      37.964     402.782
  O      156.293      37.458     403.418
  O      157.806      38.407     401.535
  H      163.167      34.569     400.541
  H      155.602      36.811     403.634
  H      161.133      39.233     404.491
  H      160.233      37.400     403.071
  H      161.862      36.596     399.811
  H      162.144      35.239     402.356
  H      159.785      35.201     402.649
  H      159.653      34.717     399.611
  H      164.201      41.053     403.438
  H      157.420      35.812     399.828
  H      163.032      40.898     404.714
  H      157.487      34.248     400.647
  P      160.016      32.570     403.260
  C      157.493      32.107     403.508
  O      158.598      32.890     403.949
  O      161.196      32.858     404.124
  O      159.854      31.024     402.872
  H      159.043      30.808     402.378
  H      156.611      32.408     404.033
  H      157.688      31.073     403.702
  H      157.350      32.252     402.458

 6  7  8  9  10  11  12  13  14  15  16  26  30  31  32  33  35 0
 6-311+G(2d,p)
 ****
 37  38 0
 6-311+G(2d,p)
 ****
 1  2  3  4  5  17  18  19  20  21  22  23  24  25 0
 3-21G
 ****
 27  28  29  34  36  39  40  41  42  43  44  45  46 0
 3-21G
 ****


