%nproc=1
%NoSave
%Mem=1900MB
#P OB98/GEN NMR

erre ene a

0 1
  C      452.690     629.269     165.463
  O      452.893     630.580     164.909
  P      452.446     630.964     163.420
  C      454.456     632.568     163.235
  O      453.048     632.398     163.053
  C      455.055     633.526     162.198
  O      454.596     633.214     160.874
  C      454.686     634.995     162.411
  O      455.487     635.560     163.435
  C      454.939     635.572     161.024
  O      456.336     635.835     160.821
  C      454.480     634.411     160.115
  N      451.384     637.292     157.195
  C      452.713     637.357     157.458
  N      453.461     636.556     158.247
  C      452.706     635.592     158.793
  C      451.341     635.393     158.641
  C      450.665     636.295     157.788
  N      449.308     636.227     157.550
  N      450.904     634.301     159.374
  C      452.001     633.840     159.947
  N      453.109     634.585     159.642
  O      450.981     630.822     163.162
  O      453.287     629.958     162.473
  H      456.825     635.004     161.013
  H      452.796     629.796     161.659
  H      453.241     638.158     156.953
  H      452.031     632.981     160.602
  H      455.118     634.313     159.228
  H      454.404     636.515     160.846
  H      453.633     635.093     162.657
  H      456.152     633.401     162.211
  H      454.934     631.586     163.151
  H      448.897     636.937     156.964
  H      448.758     635.528     158.033
  H      454.634     632.961     164.244
  P      454.828     635.924     164.852
  C      456.526     637.740     165.566
  O      456.022     636.417     165.810
  O      453.939     634.892     165.442
  O      454.031     637.292     164.559
  H      453.252     637.337     165.154
  H      457.223     637.699     164.721
  H      457.075     638.064     166.459
  H      455.717     638.433     165.360
  H      453.064     629.243     166.465
  H      453.210     628.546     164.869
  H      451.644     629.041     165.467

 3  4  5  6  7  8  9  10  11  12  22  25  29  30  31  32 0
 6-311+G(2d,p)
 ****
 33  36  37 0
 6-311+G(2d,p)
 ****
 1  2  13  14  15  16  17  18  19  20  21  23  24  26 0
 3-21G
 ****
 27  28  34  35  38  39  40  41  42  43  44  45  46  47  48 0
 3-21G
 ****


