%nproc=1
%NoSave
%Mem=1900MB
#P OB98/GEN NMR

erre ene a

0 1
  C       73.041     -92.262     690.775
  O       73.596     -90.998     690.485
  H       73.821     -93.023     690.685
  H       72.239     -92.493     690.066
  H       72.651     -92.282     691.799
  P       72.612     -89.737     690.587
  C       71.687     -90.075     688.182
  O       72.379     -89.221     689.086
  C       71.772     -89.499     686.771
  O       71.058     -88.240     686.709
  C       73.186     -89.193     686.308
  O       73.892     -90.352     685.897
  C       72.928     -88.208     685.183
  O       72.617     -88.881     683.954
  C       71.701     -87.435     685.689
  N       71.798     -82.416     684.729
  C       71.304     -83.468     684.020
  N       71.309     -84.771     684.355
  C       71.872     -84.949     685.569
  C       72.412     -83.983     686.396
  C       72.367     -82.662     685.931
  N       72.894     -81.598     686.631
  N       72.941     -84.568     687.539
  C       72.704     -85.854     687.395
  N       72.063     -86.134     686.232
  O       73.537     -88.604     691.241
  O       71.369     -89.967     691.383
  H       72.162     -88.224     683.389
  H       73.347     -88.535     692.194
  H       70.852     -83.217     683.066
  H       72.988     -86.619     688.115
  H       70.958     -87.262     684.895
  H       73.802     -87.581     685.003
  H       73.740     -88.677     687.107
  H       71.281     -90.204     686.072
  H       70.637     -90.148     688.479
  H       72.135     -91.071     688.219
  H       72.878     -80.689     686.215
  H       73.415     -81.782     687.482
  P       75.357     -90.596     686.494
  C       76.522     -89.634     684.359
  O       76.358     -90.729     685.253
  O       75.294     -92.070     687.098
  O       75.793     -89.592     687.511
  H       75.840     -92.127     687.908
  H       77.223     -89.899     683.596
  H       76.886     -88.785     684.898
  H       75.580     -89.395     683.911

 6  7  8  9  10  11  12  13  14  15  25  28  32  33  34  35 0
 6-311+G(2d,p)
 ****
 36  37  40 0
 6-311+G(2d,p)
 ****
 1  2  3  4  5  16  17  18  19  20  21  22  23  24 0
 3-21G
 ****
 26  27  29  30  31  38  39 41  42  43  44  45  46  47  48 0
 3-21G
 ****


