%nproc=1
%NoSave
%Mem=1900MB
#P OB98/GEN NMR

erre ene a

0 1
  C     -108.750    -771.253      97.750
  O     -108.980    -772.356      96.877
  P     -107.959    -773.604      97.002
  C     -109.316    -775.583      98.012
  O     -108.824    -774.946      96.845
  C     -110.655    -776.268      97.726
  O     -111.696    -775.307      97.504
  C     -110.651    -777.139      96.487
  O     -110.058    -778.413      96.727
  C     -112.153    -777.287      96.222
  O     -112.682    -778.342      97.056
  C     -112.698    -775.925      96.651
  N     -115.571    -775.113      92.556
  C     -115.588    -776.158      93.459
  N     -116.531    -777.114      93.263
  N     -114.764    -776.260      94.478
  C     -113.907    -775.227      94.561
  C     -113.783    -774.135      93.737
  C     -114.679    -774.042      92.595
  O     -114.682    -773.153      91.748
  N     -112.788    -773.285      94.153
  C     -112.333    -773.840      95.254
  N     -112.969    -775.028      95.538
  O     -107.574    -773.591      98.556
  O     -106.756    -773.487      96.123
  H     -113.535    -778.615      96.677
  H     -106.691    -773.985      98.680
  H     -116.231    -775.090      91.795
  H     -111.551    -773.427      95.886
  H     -113.612    -776.015      97.249
  H     -112.377    -777.563      95.182
  H     -117.245    -777.055      92.543
  H     -110.178    -776.631      95.634
  H     -116.591    -777.863      93.934
  H     -110.916    -776.876      98.616
  H     -109.452    -774.841      98.805
  H     -108.566    -776.300      98.363
  P     -109.129    -779.025      95.564
  C     -107.253    -779.805      97.191
  O     -108.262    -780.184      96.274
  O     -108.067    -777.855      95.299
  O     -109.866    -779.409      94.333
  H     -107.760    -777.891      94.367
  H     -107.605    -779.012      97.856
  H     -106.376    -779.453      96.636
  H     -106.993    -780.674      97.788
  H     -109.486    -770.497      97.572
  H     -107.775    -770.851      97.568
  H     -108.816    -771.582      98.766

 3  4  5  6  7  8  9  10  11  12  23  26  30  31  33  0
 6-311+G(2d,p)
 ****
 35  36  37  38 0
 6-311+G(2d,p)
 ****
 1  2  13  14  15  16  17  18  19  20  21  22  24  25  27  28  29 0
 3-21G
 ****
 32  34  39  40  41  42  43  44  45  46  47  48  49 0
 3-21G
 ****


