%nproc=1
%NoSave
%Mem=1900MB
#P OB98/GEN NMR

erre ene a

0 1
  C      -48.424     -96.509     -47.070
  O      -48.045     -96.174     -48.394
  P      -48.810     -96.786     -49.667
  C      -50.948     -95.423     -49.159
  O      -50.369     -96.709     -49.303
  C      -51.560     -94.965     -50.485
  O      -52.612     -95.893     -50.856
  C      -52.174     -93.560     -50.445
  O      -51.954     -92.963     -51.728
  C      -53.649     -93.842     -50.232
  O      -54.478     -92.764     -50.644
  C      -53.818     -95.127     -51.050
  N      -54.995     -95.892     -50.655
  C      -56.190     -95.640     -51.332
  O      -56.250     -94.784     -52.212
  N      -57.303     -96.368     -50.992
  C      -57.250     -97.210     -50.007
  N      -58.363     -97.950     -49.749
  C      -56.037     -97.428     -49.197
  C      -54.956     -96.759     -49.588
  O      -48.336     -98.132     -50.094
  O      -48.675     -95.658     -50.789
  H      -54.293     -91.998     -50.068
  H      -47.827     -95.719     -51.296
  H      -56.050     -98.120     -48.367
  H      -54.015     -96.874     -49.069
  H      -53.872     -94.891     -52.119
  H      -53.837     -94.023     -49.169
  H      -51.732     -92.926     -49.671
  H      -50.786     -95.022     -51.260
  H      -59.112     -97.899     -50.431
  H      -50.162     -94.720     -48.872
  H      -58.301     -98.825     -49.240
  H      -51.702     -95.444     -48.364
  P      -51.753     -91.372     -51.803
  C      -49.323     -91.615     -52.679
  O      -50.184     -91.065     -51.706
  O      -52.273     -90.913     -50.354
  O      -52.518     -90.655     -52.866
  H      -52.580     -89.988     -50.406
  H      -48.300     -91.297     -52.460
  H      -49.592     -91.256     -53.676
  H      -49.364     -92.707     -52.654
  H      -47.790     -95.996     -46.377
  H      -48.327     -97.565     -46.928
  H      -49.441     -96.219     -46.906

 3  4  5  6  7  8  9  10  11  12  13  23  27  28  29  30  32 0
 6-311+G(2d,p)
 ****
 34  35 0
 6-311+G(2d,p)
 ****
 1  2  14  15  16  17  18  19  20  21  22  24  25  26 0
 3-21G
 ****
 31  33  36  37  38  39  40  41  42  43  44  45  46 0
 3-21G
 ****


