%nproc=1
%NoSave
%Mem=1900MB
#P OB98/GEN NMR

erre ene a

0 1
  C     -257.344     223.327     -79.826
  O     -256.911     221.987     -79.592
  P     -256.840     221.434     -78.091
  C     -257.231     218.918     -78.494
  O     -256.301     219.923     -78.114
  C     -257.121     218.604     -79.996
  O     -255.731     218.362     -80.344
  C     -257.936     217.368     -80.405
  O     -258.791     217.608     -81.524
  C     -256.877     216.294     -80.595
  O     -257.297     215.251     -81.459
  C     -255.650     217.103     -81.038
  N     -254.397     216.393     -80.755
  C     -253.877     215.616     -81.780
  O     -254.455     215.442     -82.853
  N     -252.693     214.980     -81.511
  C     -252.035     214.991     -80.316
  O     -251.001     214.370     -80.110
  C     -252.667     215.782     -79.248
  C     -253.800     216.438     -79.513
  O     -258.058     221.659     -77.258
  O     -255.586     222.234     -77.479
  H     -257.535     215.641     -82.327
  H     -255.801     222.464     -76.553
  H     -252.295     214.426     -82.252
  H     -252.185     215.796     -78.280
  H     -254.290     217.017     -78.744
  H     -255.675     217.300     -82.113
  H     -256.666     215.842     -79.621
  H     -258.623     217.059     -79.610
  H     -257.468     219.488     -80.538
  H     -258.242     219.259     -78.276
  H     -257.069     218.025     -77.880
  P     -260.367     217.860     -81.422
  C     -260.538     219.671     -83.274
  O     -260.885     218.366     -82.849
  O     -260.816     218.684     -80.263
  O     -260.962     216.380     -81.314
  H     -261.697     216.376     -80.668
  H     -261.246     219.984     -84.046
  H     -259.534     219.660     -83.698
  H     -260.580     220.380     -82.443
  H     -257.331     223.528     -80.877
  H     -256.687     224.007     -79.325
  H     -258.339     223.451     -79.452

 3  4  5  6  7  8  9  10  11  12  13  23  28  29  30  31  32 0
 6-311+G(2d,p)
 ****
 33  34 0
 6-311+G(2d,p)
 ****
 1  2  14  15  16  17  18  19  20  21  22  24  25  26  27 0
 3-21G
 ****
 35  36  37  38  39  40  41  42  43  44  45 0
 3-21G
 ****


