%nproc=1
%NoSave
%Mem=1900MB
#P OB98/GEN NMR

erre ene a

0 1
  C      -67.188     183.897     478.773
  O      -67.162     183.681     477.373
  H      -66.929     184.941     478.972
  H      -66.457     183.253     479.271
  H      -68.189     183.705     479.170
  P      -67.502     182.215     476.827
  C      -65.378     181.090     477.779
  O      -66.800     181.190     477.837
  C      -64.958     179.631     477.718
  O      -65.560     178.885     478.800
  C      -65.364     178.919     476.426
  O      -64.449     179.220     475.384
  C      -65.303     177.466     476.874
  O      -63.934     177.038     476.936
  C      -65.892     177.563     478.299
  N      -69.737     174.262     478.038
  C      -68.379     174.056     477.853
  N      -67.998     172.810     477.502
  N      -67.475     175.003     477.974
  C      -68.019     176.215     478.256
  C      -69.342     176.541     478.446
  C      -70.322     175.475     478.360
  O      -71.531     175.603     478.535
  N      -69.508     177.888     478.647
  C      -68.281     178.375     478.619
  N      -67.336     177.405     478.368
  O      -67.182     181.954     475.383
  O      -69.061     182.038     477.141
  H      -63.624     176.942     476.017
  H      -69.607     182.310     476.381
  H      -70.376     173.493     477.909
  H      -68.019     179.416     478.772
  H      -65.453     176.825     478.979
  H      -65.834     176.789     476.213
  H      -68.651     172.136     477.125
  H      -66.400     179.159     476.143
  H      -67.014     172.657     477.316
  H      -63.869     179.584     477.865
  H      -64.983     181.568     478.687
  H      -64.996     181.627     476.906
  P      -64.914     179.214     473.840
  C      -64.770     176.640     473.590
  O      -65.619     177.788     473.632
  O      -63.836     179.533     472.864
  O      -66.150     180.225     473.791
  H      -65.891     181.166     473.632
  H      -65.364     175.762     473.448
  H      -64.231     176.561     474.511
  H      -64.078     176.738     472.780

 6  7  8  9  10  11  12  13  14  15  26  29  33  34 0
 6-311+G(2d,p)
 ****
 36  38  39  40  41 0
 6-311+G(2d,p)
 ****
 1  2  3  4  5  16  17  18  19  20  21  22  23  24  25 0
 3-21G
 ****
 27  28  30  31  32  35  37  42  43  44  45  46  47 0
 3-21G
 ****
 48  49 0
 3-21G
 ****


