%nproc=1
%NoSave
%Mem=1900MB
#P OB98/GEN NMR

erre ene a

0 1
  C        5.229     -83.111    -155.638
  O        3.912     -82.556    -155.728
  P        3.408     -81.693    -154.467
  C        3.821     -79.235    -153.714
  O        3.699     -80.149    -154.796
  C        4.232     -77.854    -154.218
  O        5.419     -77.929    -155.029
  C        3.193     -77.176    -155.099
  O        2.156     -76.584    -154.331
  C        4.035     -76.107    -155.782
  O        4.168     -74.963    -154.920
  C        5.393     -76.812    -155.952
  N        5.719     -75.607    -160.862
  C        5.479     -74.800    -159.767
  N        5.331     -73.480    -160.014
  N        5.392     -75.247    -158.542
  C        5.590     -76.583    -158.443
  C        5.834     -77.488    -159.450
  C        5.898     -76.984    -160.806
  O        6.075     -77.659    -161.815
  N        5.990     -78.758    -158.960
  C        5.869     -78.621    -157.655
  N        5.611     -77.320    -157.292
  O        4.490     -82.040    -153.339
  O        2.019     -82.015    -154.030
  H        4.611     -75.269    -154.103
  H        4.093     -81.939    -152.454
  H        5.771     -75.212    -161.785
  H        5.963     -79.423    -156.933
  H        6.228     -76.154    -155.692
  H        3.591     -75.749    -156.716
  H        5.457     -73.060    -160.922
  H        2.799     -77.874    -155.850
  H        5.189     -72.870    -159.219
  H        4.447     -77.224    -153.343
  H        4.568     -79.600    -153.005
  H        2.870     -79.191    -153.176
  P        0.822     -77.449    -154.109
  C        0.209     -79.449    -152.574
  O        1.158     -78.456    -152.909
  O        0.778     -78.387    -155.404
  O       -0.422     -76.638    -153.961
  H       -0.144     -78.620    -155.622
  H       -0.208     -79.916    -153.471
  H       -0.596     -79.004    -151.983
  H        0.704     -80.219    -151.975
  H        5.447     -83.659    -156.531
  H        5.283     -83.768    -154.795
  H        5.942     -82.321    -155.521

 3  4  5  6  7  8  9  10  11  12  23  26  30  31  33  0
 6-311+G(2d,p)
 ****
 35  36  37  38 0
 6-311+G(2d,p)
 ****
 1  2  13  14  15  16  17  18  19  20  21  22  24  25  27  28  29 0
 3-21G
 ****
 32  34  39  40  41  42  43  44  45  46  47  48  49 0
 3-21G
 ****


