%nproc=1
%NoSave
%Mem=1900MB
#P OB98/GEN NMR

erre ene a

0 1
  C       23.651      -9.437      83.377
  O       22.988      -8.801      82.304
  H       24.657      -9.018      83.465
  H       23.732     -10.510      83.189
  H       23.111      -9.261      84.310
  P       21.507      -9.312      81.962
  C       22.460     -11.045      80.278
  O       21.572      -9.958      80.495
  C       22.780     -11.153      78.791
  O       23.796     -12.160      78.579
  C       21.600     -11.581      77.930
  O       20.706     -10.512      77.677
  C       22.315     -12.060      76.679
  O       22.623     -10.969      75.797
  C       23.603     -12.690      77.252
  N       23.553     -14.148      77.246
  C       24.257     -14.772      76.221
  O       24.888     -14.154      75.363
  N       24.182     -16.137      76.188
  C       23.456     -16.918      77.039
  O       23.372     -18.133      76.912
  C       22.743     -16.205      78.112
  C       22.815     -14.872      78.160
  O       20.695      -7.950      81.744
  O       20.883     -10.180      83.002
  H       20.152      -7.758      82.530
  H       23.212     -10.371      76.299
  H       24.676     -16.606      75.447
  H       22.162     -16.796      78.809
  H       22.281     -14.323      78.930
  H       24.475     -12.380      76.661
  H       21.704     -12.762      76.111
  H       21.083     -12.431      78.390
  H       23.179     -10.188      78.450
  H       21.988     -11.975      80.610
  H       23.371     -10.883      80.863
  P       19.170     -10.680      78.108
  C       18.353     -11.460      75.736
  O       18.300     -10.498      76.773
  O       18.927      -9.326      78.921
  O       18.894     -11.931      78.870
  H       19.410      -8.568      78.549
  H       17.707     -11.160      74.938
  H       18.036     -12.410      76.114
  H       19.356     -11.538      75.372

 6  7  8  9  10  11  12  13  14  15  16  27  31  32  33  34  35 0
 6-311+G(2d,p)
 ****
 36  37 0
 6-311+G(2d,p)
 ****
 1  2  3  4  5  17  18  19  20  21  22  23  24  25 0
 3-21G
 ****
 26  28  29  30  38  39  40  41  42  43  44  45 0
 3-21G
 ****


