%nproc=1
%NoSave
%Mem=1900MB
#P OB98/GEN NMR

erre ene a

0 1
  C     -100.281    -795.792    1242.109
  O     -101.375    -795.760    1241.218
  H     -100.580    -796.337    1243.012
  H     -100.008    -794.770    1242.389
  H      -99.417    -796.295    1241.655
  P     -101.072    -795.376    1239.688
  C     -100.850    -797.811    1238.796
  O     -100.192    -796.585    1239.083
  C     -100.333    -798.415    1237.476
  O      -98.937    -798.792    1237.689
  C     -101.082    -799.677    1237.030
  O     -101.176    -799.659    1235.599
  C     -100.161    -800.797    1237.441
  O     -100.382    -801.984    1236.688
  C      -98.797    -800.155    1237.219
  N      -94.043    -801.682    1236.752
  C      -94.774    -800.794    1235.973
  N      -94.204    -800.305    1234.874
  N      -96.018    -800.458    1236.263
  C      -96.487    -801.015    1237.404
  C      -95.851    -801.883    1238.261
  C      -94.496    -802.282    1237.926
  O      -93.790    -803.056    1238.553
  N      -96.682    -802.269    1239.284
  C      -97.830    -801.646    1239.040
  N      -97.743    -800.861    1237.908
  O     -100.009    -794.183    1239.846
  O     -102.253    -794.980    1238.875
  H     -101.243    -802.358    1236.943
  H     -100.483    -793.318    1239.802
  H      -93.103    -801.918    1236.488
  H      -98.720    -801.738    1239.622
  H      -98.520    -800.120    1236.159
  H     -100.324    -801.027    1238.505
  H      -93.247    -800.504    1234.594
  H     -102.107    -799.763    1237.452
  H      -94.717    -799.638    1234.315
  H     -100.339    -797.634    1236.709
  H     -101.929    -797.613    1238.687
  H     -100.700    -798.496    1239.632
  P     -102.579    -800.053    1234.901
  C     -103.972    -797.839    1235.028
  O     -103.741    -799.144    1235.564
  O     -102.865    -801.505    1235.480
  O     -102.530    -800.040    1233.414
  H     -103.326    -802.040    1234.818
  H     -104.765    -797.367    1235.569
  H     -104.243    -797.920    1233.996
  H     -103.081    -797.254    1235.118

 6  7  8  9  10  11  12  13  14  15  26  29  33  34 0
 6-311+G(2d,p)
 ****
 36  38  39  40  41 0
 6-311+G(2d,p)
 ****
 1  2  3  4  5  16  17  18  19  20  21  22  23  24  25 0
 3-21G
 ****
 27  28  30  31  32  35  37  42  43  44  45  46  47 0
 3-21G
 ****
 48  49 0
 3-21G
 ****


