%nproc=1
%NoSave
%Mem=1900MB
#P OB98/GEN NMR

erre ene a

0 1
  C      -35.442    -197.208     211.950
  O      -34.371    -198.131     211.836
  P      -34.729    -199.646     211.435
  C      -35.732    -201.692     212.692
  O      -35.380    -200.316     212.739
  C      -36.269    -202.147     214.045
  O      -37.541    -201.525     214.328
  C      -36.527    -203.646     214.145
  O      -35.340    -204.380     214.405
  C      -37.461    -203.703     215.341
  O      -36.706    -203.615     216.563
  C      -38.308    -202.440     215.144
  N      -43.279    -203.041     215.894
  C      -42.305    -202.579     216.756
  N      -42.705    -202.291     218.018
  N      -41.053    -202.411     216.420
  C      -40.800    -202.744     215.130
  C      -41.681    -203.209     214.180
  C      -43.060    -203.408     214.574
  O      -43.957    -203.864     213.869
  N      -41.052    -203.432     212.980
  C      -39.796    -203.098     213.200
  N      -39.582    -202.717     214.500
  O      -33.296    -200.351     211.335
  O      -35.517    -199.787     210.177
  H      -37.350    -203.420     217.273
  H      -33.369    -201.189     210.839
  H      -44.229    -203.163     216.207
  H      -39.009    -203.134     212.458
  H      -38.517    -201.936     216.094
  H      -38.036    -204.633     215.387
  H      -43.640    -202.460     218.357
  H      -37.049    -204.018     213.254
  H      -41.997    -202.011     218.688
  H      -35.556    -201.827     214.817
  H      -34.849    -202.281     212.428
  H      -36.488    -201.841     211.916
  P      -35.486    -205.978     214.489
  C      -36.630    -207.597     216.169
  O      -36.407    -206.256     215.766
  O      -34.029    -206.449     214.953
  O      -35.908    -206.627     213.212
  H      -33.852    -207.360     214.653
  H      -37.040    -207.598     217.184
  H      -35.694    -208.167     216.172
  H      -37.346    -208.073     215.499
  H      -35.057    -196.247     212.220
  H      -36.124    -197.544     212.703
  H      -35.953    -197.137     211.013

 3  4  5  6  7  8  9  10  11  12  23  26  30  31 0
 6-311+G(2d,p)
 ****
 33  35  36  37  38 0
 6-311+G(2d,p)
 ****
 1  2  13  14  15  16  17  18  19  20  21  22  24  25 0
 3-21G
 ****
 27  28  29  32  34  39  40  41  42  43  44  45  46  47  48  49 0
 3-21G
 ****


