%nproc=1
%NoSave
%Mem=1900MB
#P OB98/GEN NMR

erre ene a

0 1
  C      189.545       5.086     -72.515
  O      188.344       4.607     -73.104
  P      187.883       3.105     -72.774
  C      186.803       1.941     -70.723
  O      187.542       3.056     -71.204
  C      187.432       1.368     -69.453
  O      188.668       0.686     -69.803
  C      187.779       2.412     -68.386
  O      187.602       1.788     -67.107
  C      189.257       2.660     -68.618
  O      189.895       3.220     -67.472
  C      189.716       1.253     -68.989
  N      194.662       2.540     -68.810
  C      193.673       2.641     -67.895
  N      192.381       2.276     -68.016
  C      192.146       1.759     -69.236
  C      193.043       1.627     -70.282
  C      194.363       2.039     -70.035
  N      195.374       1.928     -70.960
  N      192.422       1.079     -71.384
  C      191.174       0.887     -71.015
  N      190.965       1.260     -69.717
  O      189.253       2.287     -72.885
  O      186.839       2.547     -73.679
  H      189.856       2.566     -66.749
  H      189.224       1.695     -73.664
  H      193.961       3.066     -66.937
  H      190.389       0.486     -71.643
  H      189.841       0.613     -68.105
  H      189.388       3.357     -69.452
  H      187.182       3.327     -68.447
  H      186.752       0.611     -69.043
  H      186.800       1.165     -71.493
  H      196.317       2.118     -70.662
  H      195.207       1.385     -71.802
  H      185.770       2.243     -70.530
  P      187.079       2.719     -65.911
  C      184.804       3.828     -65.346
  O      185.629       3.244     -66.336
  O      188.005       4.021     -66.022
  O      187.177       2.087     -64.560
  H      188.096       4.440     -65.146
  H      184.198       4.611     -65.809
  H      185.391       4.268     -64.533
  H      184.141       3.062     -64.936
  H      189.718       6.095     -72.827
  H      190.364       4.472     -72.825
  H      189.458       5.052     -71.449

 3  4  5  6  7  8  9  10  11  12  22  25  29  30  31  32 0
 6-311+G(2d,p)
 ****
 33  36  37 0
 6-311+G(2d,p)
 ****
 1  2  13  14  15  16  17  18  19  20  21  23  24  26 0
 3-21G
 ****
 27  28  34  35  38  39  40  41  42  43  44  45  46  47  48 0
 3-21G
 ****


