%nproc=1
%NoSave
%Mem=1900MB
#P OB98/GEN NMR

erre ene a

0 1
  C       32.994    -703.140    -244.491
  O       32.545    -702.108    -245.337
  H       32.434    -704.051    -244.715
  H       32.820    -702.871    -243.446
  H       34.063    -703.336    -244.650
  P       33.377    -700.734    -245.311
  C       34.086    -699.095    -243.424
  O       33.187    -700.116    -243.842
  C       33.388    -698.128    -242.476
  O       33.075    -698.794    -241.226
  C       34.213    -696.899    -242.115
  O       34.128    -695.890    -243.110
  C       33.521    -696.468    -240.829
  O       32.281    -695.798    -241.150
  C       33.228    -697.812    -240.157
  N       34.468    -698.744    -235.323
  C       33.284    -698.265    -235.865
  N       32.293    -697.988    -234.993
  N       33.094    -698.075    -237.147
  C       34.178    -698.382    -237.901
  C       35.400    -698.862    -237.481
  C       35.593    -699.076    -236.065
  O       36.610    -699.518    -235.535
  N       36.242    -699.076    -238.540
  C       35.546    -698.698    -239.591
  N       34.288    -698.264    -239.260
  O       32.509    -699.757    -246.241
  O       34.786    -700.835    -245.791
  H       31.625    -696.499    -241.317
  H       33.116    -699.177    -246.734
  H       34.566    -698.857    -234.333
  H       35.901    -698.725    -240.615
  H       32.302    -697.804    -239.581
  H       34.120    -695.772    -240.242
  H       32.394    -698.065    -233.994
  H       35.252    -697.164    -241.894
  H       31.405    -697.666    -235.370
  H       32.434    -697.837    -242.934
  H       34.442    -698.550    -244.307
  H       34.940    -699.563    -242.929
  P       35.050    -694.587    -242.930
  C       35.835    -693.428    -240.741
  O       34.769    -694.069    -241.438
  O       34.313    -693.497    -243.843
  O       36.480    -694.765    -243.304
  H       34.946    -692.801    -244.108
  H       35.501    -693.140    -239.766
  H       36.144    -692.559    -241.284
  H       36.659    -694.104    -240.650

 6  7  8  9  10  11  12  13  14  15  26  29  33  34 0
 6-311+G(2d,p)
 ****
 36  38  39  40  41 0
 6-311+G(2d,p)
 ****
 1  2  3  4  5  16  17  18  19  20  21  22  23  24  25 0
 3-21G
 ****
 27  28  30  31  32  35  37  42  43  44  45  46  47 0
 3-21G
 ****
 48  49 0
 3-21G
 ****


