%nproc=1
%NoSave
%Mem=1900MB
#P OB98/GEN NMR

erre ene a

0 1
  C     -488.360     366.671    -108.576
  O     -488.290     365.526    -109.392
  H     -487.558     366.622    -107.836
  H     -489.315     366.703    -108.041
  H     -488.232     367.581    -109.168
  P     -489.386     365.318    -110.547
  C     -487.697     366.028    -112.350
  O     -488.947     366.311    -111.736
  C     -487.091     367.285    -112.982
  O     -486.831     368.276    -111.946
  C     -485.773     367.033    -113.728
  O     -485.810     367.664    -115.007
  C     -484.728     367.707    -112.842
  O     -483.564     368.086    -113.555
  C     -485.552     368.867    -112.255
  N     -484.919     369.455    -111.094
  C     -484.300     370.709    -111.290
  O     -484.328     371.228    -112.403
  N     -483.621     371.279    -110.253
  C     -483.537     370.661    -109.114
  N     -482.830     371.276    -108.138
  C     -484.148     369.330    -108.871
  C     -484.815     368.794    -109.887
  O     -490.803     365.448    -110.097
  O     -489.058     363.874    -111.163
  H     -483.833     368.623    -114.329
  H     -489.868     363.529    -111.609
  H     -484.032     368.855    -107.907
  H     -485.294     367.823    -109.804
  H     -485.718     369.649    -113.004
  H     -484.435     367.020    -112.041
  H     -485.557     365.975    -113.860
  H     -487.848     367.732    -113.644
  H     -482.424     372.173    -108.347
  H     -487.855     365.248    -113.110
  H     -482.663     370.877    -107.222
  H     -487.015     365.647    -111.583
  P     -486.427     366.807    -116.211
  C     -488.602     368.205    -116.465
  O     -488.029     366.944    -116.136
  O     -486.152     365.289    -115.766
  O     -485.819     367.116    -117.536
  H     -485.473     364.900    -116.340
  H     -489.666     368.148    -116.372
  H     -488.345     368.462    -117.472
  H     -488.225     368.953    -115.799

 6  7  8  9  10  11  12  13  14  15  16  26  30  31  32  33  35 0
 6-311+G(2d,p)
 ****
 37  38 0
 6-311+G(2d,p)
 ****
 1  2  3  4  5  17  18  19  20  21  22  23  24  25 0
 3-21G
 ****
 27  28  29  34  36  39  40  41  42  43  44  45  46 0
 3-21G
 ****


