%nproc=1
%NoSave
%Mem=1900MB
#P OB98/GEN NMR

erre ene a

0 1
  C      -24.713     221.627     190.106
  O      -25.607     221.613     191.203
  P      -25.638     220.366     192.212
  C      -25.974     217.821     191.959
  O      -25.827     219.069     191.285
  C      -26.990     216.930     191.240
  O      -28.321     217.471     191.371
  C      -26.745     216.793     189.743
  O      -25.679     215.893     189.490
  C      -28.109     216.315     189.264
  O      -28.254     214.898     189.447
  C      -29.069     217.085     190.195
  N      -29.676     218.237     189.539
  C      -31.074     218.311     189.604
  O      -31.718     217.420     190.161
  N      -31.707     219.368     188.993
  C      -31.006     220.258     188.358
  N      -31.690     221.273     187.763
  C      -29.536     220.197     188.240
  C      -28.941     219.172     188.847
  O      -26.601     220.490     193.347
  O      -24.112     220.244     192.686
  H      -27.634     214.476     188.821
  H      -23.872     220.965     193.324
  H      -28.997     220.954     187.691
  H      -27.865     219.049     188.811
  H      -29.875     216.427     190.548
  H      -28.266     216.520     188.200
  H      -26.530     217.780     189.309
  H      -26.973     215.941     191.716
  H      -32.700     221.261     187.843
  H      -26.327     218.021     192.975
  H      -31.249     221.994     187.215
  H      -25.001     217.324     192.022
  P      -24.541     216.278     188.434
  C      -24.418     216.790     185.921
  O      -25.204     216.266     186.973
  O      -23.265     215.518     188.561
  O      -24.299     217.843     188.700
  H      -23.337     218.018     188.710
  H      -24.816     216.425     184.970
  H      -23.376     216.470     186.014
  H      -24.470     217.879     185.937
  H      -24.840     222.535     189.554
  H      -24.916     220.791     189.470
  H      -23.707     221.566     190.465

 3  4  5  6  7  8  9  10  11  12  13  23  27  28  29  30  32 0
 6-311+G(2d,p)
 ****
 34  35 0
 6-311+G(2d,p)
 ****
 1  2  14  15  16  17  18  19  20  21  22  24  25  26 0
 3-21G
 ****
 31  33  36  37  38  39  40  41  42  43  44  45  46 0
 3-21G
 ****


