%nproc=1
%NoSave
%Mem=1900MB
#P OB98/GEN NMR

erre ene a

0 1
  C      -19.486    -148.144    -227.500
  O      -19.745    -147.476    -226.282
  H      -18.567    -148.727    -227.395
  H      -19.353    -147.418    -228.305
  H      -20.308    -148.823    -227.747
  P      -21.117    -146.652    -226.180
  C      -20.073    -144.267    -226.249
  O      -20.854    -145.248    -226.916
  C      -19.978    -143.007    -227.112
  O      -19.214    -143.320    -228.308
  C      -21.346    -142.479    -227.568
  O      -21.313    -141.050    -227.585
  C      -21.469    -143.009    -228.985
  O      -22.357    -142.260    -229.803
  C      -20.010    -142.937    -229.451
  N      -19.737    -143.812    -230.588
  C      -19.554    -143.213    -231.829
  O      -19.528    -141.997    -232.024
  N      -19.394    -144.073    -232.885
  C      -19.423    -145.435    -232.828
  O      -19.296    -146.153    -233.812
  C      -19.630    -146.012    -231.489
  C      -19.776    -145.186    -230.449
  O      -21.189    -146.244    -224.633
  O      -22.338    -147.371    -226.642
  H      -21.663    -146.928    -224.124
  H      -23.268    -142.413    -229.482
  H      -19.258    -143.654    -233.794
  H      -19.668    -147.091    -231.404
  H      -19.945    -145.580    -229.452
  H      -19.740    -141.904    -229.704
  H      -21.818    -144.047    -228.970
  H      -22.164    -142.822    -226.935
  H      -19.421    -142.239    -226.563
  H      -19.067    -144.663    -226.081
  H      -20.533    -144.031    -225.285
  P      -22.191    -140.278    -226.481
  C      -23.866    -139.056    -228.077
  O      -23.647    -140.090    -227.131
  O      -21.544    -138.818    -226.528
  O      -22.163    -140.945    -225.144
  H      -21.278    -138.539    -227.419
  H      -24.885    -139.079    -228.401
  H      -23.221    -139.200    -228.918
  H      -23.657    -138.109    -227.625

 6  7  8  9  10  11  12  13  14  15  16  27  31  32  33  34  35 0
 6-311+G(2d,p)
 ****
 36  37 0
 6-311+G(2d,p)
 ****
 1  2  3  4  5  17  18  19  20  21  22  23  24  25 0
 3-21G
 ****
 26  28  29  30  38  39  40  41  42  43  44  45 0
 3-21G
 ****


