%nproc=1
%NoSave
%Mem=1900MB
#P OB98/GEN NMR

erre ene a

0 1
  C      168.430     128.900     100.521
  O      167.674     127.789     100.974
  P      168.185     127.048     102.304
  C      168.990     125.071     100.808
  O      169.302     125.994     101.848
  C      170.164     124.954      99.837
  O      170.580     126.267      99.403
  C      171.412     124.310     100.429
  O      171.262     122.904     100.533
  C      172.465     124.766      99.424
  O      172.403     123.951      98.242
  C      172.002     126.198      99.103
  N      176.008     129.388      99.206
  C      175.604     128.476      98.292
  N      174.537     127.648      98.348
  C      173.853     127.831      99.487
  C      174.156     128.706     100.518
  C      175.292     129.514     100.350
  N      175.704     130.438     101.286
  N      173.236     128.597     101.542
  C      172.383     127.682     101.127
  N      172.704     127.201      99.885
  O      166.942     126.123     102.702
  O      168.587     127.961     103.421
  H      173.166     124.195      97.680
  H      166.869     126.039     103.673
  H      176.215     128.403      97.397
  H      171.521     127.342     101.683
  H      172.131     126.453      98.046
  H      173.489     124.705      99.812
  H      171.633     124.733     101.418
  H      169.824     124.394      98.958
  H      168.111     125.426     100.258
  H      176.609     130.867     101.154
  H      175.253     130.430     102.191
  H      168.753     124.103     101.255
  P      171.354     122.260     102.004
  C      173.057     120.636     100.964
  O      172.797     121.551     102.017
  O      170.356     121.019     101.876
  O      171.083     123.205     103.121
  H      170.525     120.493     101.073
  H      174.082     120.272     101.065
  H      172.949     121.133      99.996
  H      172.371     119.788     101.029
  H      167.984     129.297      99.633
  H      169.431     128.587     100.308
  H      168.446     129.654     101.280

 3  4  5  6  7  8  9  10  11  12  22  25  29  30  31  32 0
 6-311+G(2d,p)
 ****
 33  36  37 0
 6-311+G(2d,p)
 ****
 1  2  13  14  15  16  17  18  19  20  21  23  24  26 0
 3-21G
 ****
 27  28  34  35  38  39  40  41  42  43  44  45  46  47  48 0
 3-21G
 ****


