%nproc=1
%NoSave
%Mem=1900MB
#P OB98/GEN NMR

erre ene a

0 1
  C      159.114    -461.505     411.428
  O      160.297    -461.396     412.202
  H      159.268    -460.981     410.482
  H      158.276    -461.041     411.950
  H      158.890    -462.555     411.215
  P      160.397    -462.210     413.579
  C      162.815    -462.970     413.097
  O      161.949    -462.260     413.984
  C      164.251    -462.469     413.285
  O      164.358    -461.085     412.875
  C      164.741    -462.515     414.729
  O      165.072    -463.838     415.113
  C      165.925    -461.560     414.664
  O      167.087    -462.217     414.122
  C      165.397    -460.475     413.694
  N      164.896    -459.292     414.376
  C      165.762    -458.185     414.417
  O      166.900    -458.203     413.944
  N      165.280    -457.079     415.058
  C      164.096    -456.999     415.736
  O      163.749    -456.007     416.376
  C      163.245    -458.186     415.687
  C      163.672    -459.266     415.012
  O      159.695    -463.522     413.610
  O      159.783    -461.191     414.658
  H      167.662    -461.506     413.772
  H      158.888    -461.484     414.909
  H      165.895    -456.281     415.113
  H      162.288    -458.152     416.198
  H      163.057    -460.150     414.970
  H      166.192    -460.171     412.996
  H      166.192    -461.170     415.639
  H      163.978    -462.097     415.391
  H      164.911    -463.068     412.632
  H      162.497    -462.777     412.063
  H      162.747    -464.036     413.308
  P      165.166    -464.217     416.671
  C      163.683    -466.323     416.633
  O      165.006    -465.804     416.800
  O      164.286    -463.414     417.574
  O      166.713    -463.984     417.017
  H      166.788    -463.297     417.711
  H      163.701    -467.387     416.740
  H      163.320    -466.069     415.659
  H      163.038    -465.901     417.375

 6  7  8  9  10  11  12  13  14  15  16  26  31  32  33  34  35 0
 6-311+G(2d,p)
 ****
 36  37 0
 6-311+G(2d,p)
 ****
 1  2  3  4  5  17  18  19  20  21  22  23  24  25 0
 3-21G
 ****
 27  28  29  30  38  39  40  41  42  43  44  45 0
 3-21G
 ****


