%nproc=1
%NoSave
%Mem=1900MB
#P OB98/GEN NMR

erre ene a

0 1
  C       77.187     -13.291    -168.921
  O       78.088     -12.288    -169.400
  P       78.755     -11.315    -168.315
  C       80.197     -12.644    -166.603
  O       80.147     -11.953    -167.845
  C       81.417     -12.193    -165.797
  O       81.307     -12.593    -164.418
  C       82.718     -12.804    -166.287
  O       83.171     -12.142    -167.451
  C       83.629     -12.620    -165.079
  O       84.327     -11.364    -165.125
  C       82.643     -12.657    -163.889
  N       82.823     -13.829    -163.048
  C       83.268     -13.583    -161.744
  O       83.503     -12.431    -161.377
  N       83.456     -14.650    -160.904
  C       83.245     -15.855    -161.335
  N       83.453     -16.872    -160.458
  C       82.803     -16.158    -162.712
  C       82.614     -15.108    -163.507
  O       77.815     -11.496    -167.032
  O       78.827      -9.887    -168.747
  H       85.023     -11.475    -165.805
  H       77.766     -10.665    -166.529
  H       82.647     -17.179    -163.027
  H       82.290     -15.236    -164.535
  H       82.773     -11.768    -163.260
  H       84.393     -13.402    -165.033
  H       82.578     -13.873    -166.486
  H       81.477     -11.096    -165.843
  H       83.759     -16.629    -159.523
  H       80.242     -13.722    -166.774
  H       83.327     -17.847    -160.688
  H       79.269     -12.452    -166.055
  P       83.892     -13.022    -168.577
  C       81.718     -14.137    -169.368
  O       82.772     -13.255    -169.703
  O       83.960     -14.466    -167.881
  O       85.229     -12.568    -169.053
  H       84.469     -15.082    -168.436
  H       80.932     -14.043    -170.122
  H       81.299     -13.884    -168.391
  H       82.082     -15.167    -169.366
  H       76.819     -13.864    -169.747
  H       76.367     -12.823    -168.418
  H       77.701     -13.936    -168.240

 3  4  5  6  7  8  9  10  11  12  13  21  23  27  28  29  30  32 0
 6-311+G(2d,p)
 ****
 34  35 0
 6-311+G(2d,p)
 ****
 1  2  14  15  16  17  18  19  20  22  24  25  26 0
 3-21G
 ****
 31  33  36  37  38  39  40  41  42  43  44  45  46 0
 3-21G
 ****


