%nproc=1
%NoSave
%Mem=1900MB
#P OB98/GEN NMR

erre ene a

0 1
  C     -111.362      28.139     248.487
  O     -112.605      28.525     249.087
  P     -113.091      27.853     250.464
  C     -115.552      27.650     249.811
  O     -114.632      28.242     250.721
  C     -116.785      28.529     249.529
  O     -117.869      28.207     250.445
  C     -116.542      30.040     249.638
  O     -117.399      30.653     248.671
  C     -117.012      30.338     251.058
  O     -117.281      31.731     251.253
  C     -118.222      29.407     251.165
  N     -118.578      29.132     252.549
  C     -119.373      30.070     253.215
  O     -119.689      31.118     252.643
  N     -119.736      29.831     254.512
  C     -119.274      28.800     255.133
  N     -119.654      28.623     256.435
  C     -118.363      27.804     254.500
  C     -118.074      28.026     253.219
  O     -112.187      28.096     251.635
  O     -113.159      26.281     250.117
  H     -116.472      32.227     251.034
  H     -112.973      25.771     250.925
  H     -117.990      26.963     255.069
  H     -117.426      27.365     252.671
  H     -119.097      29.842     250.671
  H     -116.235      30.042     251.771
  H     -115.497      30.321     249.465
  H     -117.149      28.280     248.520
  H     -120.255      29.339     256.841
  H     -115.887      26.686     250.222
  H     -119.270      27.912     257.035
  H     -115.043      27.426     248.864
  P     -116.910      30.994     247.188
  C     -118.509      32.989     247.063
  O     -118.109      31.772     246.473
  O     -116.373      29.828     246.412
  O     -115.790      32.127     247.377
  H     -115.250      32.188     246.571
  H     -119.172      33.524     246.379
  H     -117.643      33.622     247.281
  H     -119.047      32.787     248.003
  H     -111.215      28.693     247.583
  H     -111.383      27.093     248.264
  H     -110.560      28.343     249.165

 3  4  5  6  7  8  9  10  11  12  13  23  27  28  29  30  32 0
 6-311+G(2d,p)
 ****
 34  35 0
 6-311+G(2d,p)
 ****
 1  2  14  15  16  17  18  19  20  21  22  24  25  26 0
 3-21G
 ****
 31  33  36  37  38  39  40  41  42  43  44  45  46 0
 3-21G
 ****


