%nproc=1
%NoSave
%Mem=1900MB
#P OB98/GEN NMR

erre ene a

0 1
  C     -605.725    -477.271      17.154
  O     -604.545    -476.930      17.861
  H     -606.302    -477.982      17.751
  H     -605.465    -477.745      16.197
  H     -606.331    -476.380      16.981
  P     -603.531    -475.934      17.117
  C     -604.102    -474.001      18.750
  O     -604.067    -474.445      17.399
  C     -603.285    -472.723      18.909
  O     -603.687    -471.720      17.949
  C     -603.384    -472.084      20.288
  O     -602.491    -472.698      21.206
  C     -603.005    -470.641      19.977
  O     -601.575    -470.491      19.865
  C     -603.669    -470.426      18.610
  N     -606.415    -466.284      19.567
  C     -605.055    -466.501      19.686
  N     -604.315    -465.475      20.155
  N     -604.471    -467.640      19.385
  C     -605.337    -468.594      18.980
  C     -606.704    -468.512      18.831
  C     -607.336    -467.231      19.120
  O     -608.523    -466.953      18.959
  N     -607.240    -469.700      18.382
  C     -606.189    -470.508      18.309
  N     -605.024    -469.883      18.663
  O     -603.869    -476.153      15.564
  O     -602.084    -476.165      17.394
  H     -601.169    -470.614      20.749
  H     -603.033    -476.119      15.054
  H     -606.807    -465.387      19.788
  H     -606.237    -471.543      17.988
  H     -603.094    -469.745      17.963
  H     -603.328    -469.954      20.764
  H     -604.735    -464.706      20.668
  H     -604.413    -472.109      20.666
  H     -603.333    -465.652      20.303
  H     -602.235    -472.979      18.683
  H     -603.690    -474.786      19.392
  H     -605.139    -473.807      19.036
  P     -602.961    -472.858      22.727
  C     -603.840    -475.274      22.321
  O     -604.131    -473.953      22.771
  O     -603.720    -471.479      23.023
  O     -601.845    -473.083      23.703
  H     -603.159    -470.902      23.587
  H     -604.715    -475.883      22.412
  H     -603.054    -475.689      22.917
  H     -603.533    -475.242      21.297

 6  7  8  9  10  11  12  13  14  15  26  29  33  34 0
 6-311+G(2d,p)
 ****
 36  38  39  40  41 0
 6-311+G(2d,p)
 ****
 1  2  3  4  5  16  17  18  19  20  21  22  23  24  25 0
 3-21G
 ****
 27  28  30  31  32  35  37  42  43  44  45  46  47 0
 3-21G
 ****
 48  49 0
 3-21G
 ****


