%nproc=1
%NoSave
%Mem=1900MB
#P OB98/GEN NMR

erre ene a

0 1
  C     -892.640    -763.177    1854.097
  O     -893.940    -763.066    1853.538
  H     -892.010    -762.389    1853.678
  H     -892.210    -764.134    1853.875
  H     -892.680    -763.024    1855.190
  P     -895.100    -763.997    1854.127
  C     -896.810    -762.410    1855.304
  O     -895.650    -763.238    1855.465
  C     -896.570    -761.023    1855.936
  O     -895.380    -760.417    1855.286
  C     -897.730    -760.041    1855.810
  O     -897.700    -759.149    1856.925
  C     -897.340    -759.307    1854.537
  O     -898.130    -758.156    1854.297
  C     -895.830    -759.129    1854.786
  N     -895.040    -758.711    1853.652
  C     -894.060    -757.719    1853.813
  O     -893.860    -757.158    1854.919
  N     -893.380    -757.346    1852.688
  C     -893.520    -757.869    1851.456
  O     -892.840    -757.497    1850.471
  C     -894.570    -758.893    1851.351
  C     -895.260    -759.281    1852.390
  O     -894.760    -765.437    1854.332
  O     -896.310    -763.791    1853.109
  H     -896.360    -764.565    1852.514
  H     -897.810    -757.712    1853.522
  H     -892.700    -756.633    1852.872
  H     -894.700    -759.304    1850.329
  H     -896.030    -760.042    1852.311
  H     -895.670    -758.388    1855.624
  H     -897.490    -759.963    1853.642
  H     -898.710    -760.552    1855.761
  H     -896.250    -761.177    1857.017
  H     -897.630    -762.910    1855.829
  H     -897.010    -762.311    1854.253
  P     -898.610    -759.423    1858.258
  C     -896.760    -759.899    1860.052
  O     -897.780    -760.410    1859.229
  O     -900.000    -759.843    1857.975
  O     -898.550    -757.974    1859.025
  H     -899.370    -757.921    1859.574
  H     -896.327    -760.696    1860.619
  H     -897.171    -759.169    1860.718
  H     -896.006    -759.443    1859.445

 6  7  8  9  10  11  12  13  14  15  16  27  31  32  33  34  35 0
 6-311+G(2d,p)
 ****
 36  37 0
 6-311+G(2d,p)
 ****
 1  2  3  4  5  17  18  19  20  21  22  23  24  25 0
 3-21G
 ****
 26  28  29  30  38  39  40  41  42  43  44  45 0
 3-21G
 ****


