%nproc=1
%NoSave
%Mem=1900MB
#P OB98/GEN NMR

erre ene a

0 1
  C      -28.910    -178.692     107.972
  O      -29.832    -179.602     107.364
  P      -31.284    -179.034     106.980
  C      -31.179    -176.668     105.859
  O      -31.050    -178.076     105.717
  C      -30.932    -175.983     104.517
  O      -29.568    -176.197     104.078
  C      -31.807    -176.497     103.384
  O      -33.138    -176.021     103.500
  C      -31.044    -175.980     102.172
  O      -31.347    -174.596     101.943
  C      -29.577    -176.128     102.631
  N      -28.905    -177.277     102.039
  C      -28.347    -177.071     100.782
  O      -28.425    -176.002     100.178
  N      -27.709    -178.147     100.227
  C      -27.605    -179.389     100.783
  O      -27.011    -180.313     100.242
  C      -28.257    -179.560     102.089
  C      -28.869    -178.514     102.651
  O      -31.554    -178.033     108.196
  O      -32.302    -180.109     106.805
  H      -30.747    -177.588     108.508
  H      -31.013    -174.107     102.721
  H      -27.287    -178.014      99.322
  H      -28.217    -180.540     102.548
  H      -29.359    -178.622     103.613
  H      -29.007    -175.229     102.367
  H      -31.292    -176.527     101.257
  H      -31.807    -177.595     103.383
  H      -31.084    -174.904     104.652
  H      -30.453    -176.299     106.590
  H      -32.178    -176.441     106.241
  P      -34.126    -176.852     104.457
  C      -35.130    -176.201     106.781
  O      -34.023    -176.181     105.908
  O      -33.324    -178.229     104.609
  O      -35.507    -176.999     103.910
  H      -32.374    -178.101     104.765
  H      -34.776    -176.025     107.801
  H      -35.646    -177.163     106.751
  H      -35.827    -175.404     106.509
  H      -27.989    -179.199     108.174
  H      -29.323    -178.325     108.888
  H      -28.728    -177.872     107.309

 3  4  5  6  7  8  9  10  11  12  13  24  28  29  30  31  32 0
 6-311+G(2d,p)
 ****
 33  34 0
 6-311+G(2d,p)
 ****
 1  2  14  15  16  17  18  19  20  21  22  23  25  26  27 0
 3-21G
 ****
 35  36  37  38  39  40  41  42  43  44  45 0
 3-21G
 ****


