%nproc=1
%NoSave
%Mem=1900MB
#P OB98/GEN NMR

erre ene a

0 1
  C      -59.199    -458.362    -849.210
  O      -60.428    -457.783    -849.586
  H      -59.381    -459.380    -848.859
  H      -58.755    -457.787    -848.389
  H      -58.501    -458.404    -850.048
  P      -60.362    -456.459    -850.492
  C      -59.415    -455.159    -848.453
  O      -60.395    -455.206    -849.480
  C      -59.225    -453.713    -847.974
  O      -58.636    -452.936    -849.074
  C      -60.521    -453.017    -847.539
  O      -60.235    -452.149    -846.434
  C      -60.849    -452.136    -848.742
  O      -61.670    -451.026    -848.399
  C      -59.437    -451.749    -849.200
  N      -57.891    -447.931    -852.067
  C      -57.574    -448.258    -850.771
  N      -56.761    -447.411    -850.097
  N      -58.009    -449.339    -850.171
  C      -58.811    -450.101    -850.960
  C      -59.201    -449.890    -852.260
  C      -58.713    -448.694    -852.908
  O      -58.982    -448.332    -854.040
  N      -60.046    -450.871    -852.687
  C      -60.193    -451.673    -851.632
  N      -59.458    -451.242    -850.570
  O      -61.811    -456.427    -851.173
  O      -59.270    -456.426    -851.503
  H      -61.748    -450.436    -849.183
  H      -61.769    -456.849    -852.049
  H      -57.536    -447.080    -852.478
  H      -60.828    -452.552    -851.602
  H      -58.997    -450.955    -848.573
  H      -61.359    -452.728    -849.514
  H      -56.349    -446.585    -850.503
  H      -61.333    -453.691    -847.278
  H      -56.488    -447.663    -849.164
  H      -58.484    -453.716    -847.158
  H      -58.470    -455.534    -848.836
  H      -59.735    -455.792    -847.620
  P      -60.506    -452.713    -844.954
  C      -62.668    -451.301    -844.574
  O      -61.343    -451.604    -844.149
  O      -59.061    -452.648    -844.260
  O      -61.067    -454.100    -844.938
  H      -58.963    -453.401    -843.638
  H      -63.083    -450.548    -843.937
  H      -63.270    -452.184    -844.522
  H      -62.646    -450.943    -845.582

 6  7  8  9  10  11  12  13  14  15  26  29  33  34 0
 6-311+G(2d,p)
 ****
 36  38  39  40  41 0
 6-311+G(2d,p)
 ****
 1  2  3  4  5  16  17  18  19  20  21  22  23  24  25 0
 3-21G
 ****
 27  28  30  31  32  35  37  42  43  44  45  46  47 0
 3-21G
 ****
 48  49 0
 3-21G
 ****


