%nproc=1
%NoSave
%Mem=1900MB
#P OB98/GEN NMR

erre ene a

0 1
  C      478.014     178.184    -242.393
  O      477.637     177.932    -243.751
  P      478.728     177.241    -244.713
  C      478.352     179.248    -246.353
  O      478.541     177.854    -246.168
  C      477.727     179.541    -247.740
  O      478.553     178.898    -248.751
  C      476.327     178.987    -247.944
  O      475.729     179.665    -249.070
  C      476.606     177.550    -248.335
  O      475.493     176.950    -248.987
  C      477.885     177.692    -249.207
  N      478.807     176.537    -249.086
  C      478.457     175.344    -249.704
  O      477.414     175.179    -250.345
  N      479.319     174.297    -249.543
  C      480.512     174.338    -248.862
  O      481.208     173.346    -248.669
  C      480.919     175.657    -248.350
  C      480.049     176.665    -248.473
  O      478.202     175.730    -244.833
  O      480.124     177.298    -244.174
  H      475.327     177.484    -249.803
  H      478.764     175.135    -244.297
  H      479.044     173.400    -249.926
  H      481.877     175.732    -247.878
  H      480.331     177.649    -248.087
  H      477.644     177.799    -250.269
  H      476.825     176.960    -247.451
  H      475.668     179.059    -247.082
  H      477.755     180.613    -247.922
  H      479.294     179.783    -246.238
  H      477.675     179.629    -245.573
  P      475.743     181.276    -249.061
  C      473.352     181.851    -248.346
  O      474.259     181.746    -249.430
  O      476.845     181.920    -249.843
  O      475.845     181.623    -247.491
  H      476.166     182.542    -247.371
  H      472.603     182.624    -248.577
  H      473.850     182.113    -247.411
  H      472.826     180.894    -248.234
  H      477.197     178.642    -241.875
  H      478.861     178.838    -242.373
  H      478.265     177.260    -241.915

 3  4  5  6  7  8  9  10  11  12  13  23  28  29  30  31  32 0
 6-311+G(2d,p)
 ****
 33  34 0
 6-311+G(2d,p)
 ****
 1  2  14  15  16  17  18  19  20  21  22  24  25  26  27 0
 3-21G
 ****
 35  36  37  38  39  40  41  42  43  44  45 0
 3-21G
 ****


