%nproc=1
%NoSave
%Mem=1900MB
#P OB98/GEN NMR

erre ene a

0 1
  C       54.645     536.320    -158.634
  O       55.021     535.069    -158.096
  H       54.968     536.368    -159.677
  H       55.126     537.132    -158.079
  H       53.559     536.437    -158.593
  P       54.725     534.847    -156.533
  C       52.351     534.023    -157.236
  O       53.122     534.913    -156.443
  C       51.104     533.597    -156.468
  O       51.464     533.047    -155.182
  C       50.139     534.738    -156.166
  O       49.338     535.093    -157.281
  C       49.316     534.112    -155.056
  O       48.388     533.166    -155.618
  C       50.414     533.394    -154.239
  N       50.950     534.214    -153.152
  C       50.638     533.810    -151.849
  O       49.938     532.821    -151.650
  N       51.102     534.563    -150.794
  C       51.821     535.617    -151.019
  N       52.241     536.331    -149.940
  C       52.187     536.067    -152.375
  C       51.724     535.329    -153.380
  O       55.168     536.233    -155.865
  O       55.343     533.640    -155.914
  H       48.059     532.619    -154.881
  H       54.907     536.244    -154.913
  H       52.782     536.958    -152.513
  H       51.951     535.601    -154.405
  H       50.036     532.456    -153.813
  H       48.730     534.840    -154.492
  H       50.661     535.613    -155.764
  H       50.613     532.799    -157.038
  H       51.923     536.033    -149.028
  H       52.966     533.150    -157.474
  H       52.647     537.255    -150.022
  H       52.053     534.514    -158.167
  P       49.244     536.650    -157.663
  C       51.439     537.083    -158.982
  O       50.747     537.205    -157.747
  O       48.682     537.316    -156.324
  O       48.382     536.957    -158.847
  H       48.043     538.027    -156.525
  H       52.422     537.495    -158.882
  H       50.906     537.613    -159.743
  H       51.511     536.050    -159.250

 6  7  8  9  10  11  12  13  14  15  16  26  30  31  32  33  35 0
 6-311+G(2d,p)
 ****
 37  38 0
 6-311+G(2d,p)
 ****
 1  2  3  4  5  17  18  19  20  21  22  23  24  25 0
 3-21G
 ****
 27  28  29  34  36  39  40  41  42  43  44  45  46 0
 3-21G
 ****


