%nproc=1
%NoSave
%Mem=1900MB
#P OB98/GEN NMR

erre ene a

0 1
  C      -14.932      37.209      78.888
  O      -14.573      35.876      79.212
  P      -13.372      35.192      78.403
  C      -15.051      34.197      76.681
  O      -13.870      34.959      76.895
  C      -15.272      33.963      75.186
  O      -15.600      35.234      74.543
  C      -14.050      33.383      74.454
  O      -14.536      32.524      73.413
  C      -13.417      34.621      73.841
  O      -12.542      34.323      72.764
  C      -14.677      35.398      73.445
  N      -14.410      36.812      73.170
  C      -14.988      37.361      72.030
  O      -15.703      36.734      71.248
  N      -14.669      38.668      71.771
  C      -13.778      39.432      72.468
  O      -13.445      40.557      72.115
  C      -13.198      38.798      73.663
  C      -13.534      37.539      73.956
  O      -13.312      33.714      79.017
  O      -12.059      35.897      78.515
  H      -12.249      35.171      72.381
  H      -12.593      33.645      79.671
  H      -15.089      39.086      70.955
  H      -12.501      39.383      74.252
  H      -13.107      37.040      74.819
  H      -15.144      34.938      72.563
  H      -12.841      35.152      74.607
  H      -13.365      32.838      75.112
  H      -16.140      33.303      75.060
  H      -15.906      34.739      77.091
  H      -14.972      33.242      77.216
  P      -13.762      31.139      73.155
  C      -12.357      32.254      71.251
  O      -12.371      31.514      72.453
  O      -14.641      30.520      71.967
  O      -13.685      30.261      74.363
  H      -14.877      31.181      71.293
  H      -13.175      32.979      71.217
  H      -12.445      31.569      70.403
  H      -11.407      32.790      71.173
  H      -15.744      37.521      79.511
  H      -15.230      37.259      77.862
  H      -14.093      37.853      79.047

 3  4  5  6  7  8  9  10  11  12  13  23  28  29  30  31  32 0
 6-311+G(2d,p)
 ****
 33  34 0
 6-311+G(2d,p)
 ****
 1  2  14  15  16  17  18  19  20  21  22  24  25  26 0
 3-21G
 ****
 27  35  36  37  38  39  40  41  42  43  44  45 0
 3-21G
 ****


