%nproc=1
%NoSave
%Mem=1900MB
#P OB98/GEN NMR

erre ene a

0 1
  C     -428.064     720.826     530.801
  O     -427.532     719.651     530.224
  H     -427.948     721.648     530.088
  H     -427.523     721.073     531.717
  H     -429.128     720.697     531.018
  P     -427.623     718.319     531.113
  C     -427.998     716.483     529.300
  O     -428.568     717.310     530.300
  C     -428.456     716.931     527.908
  O     -428.096     718.332     527.726
  C     -427.804     716.150     526.755
  O     -428.724     716.143     525.652
  C     -426.614     717.034     526.421
  O     -426.054     716.677     525.177
  C     -427.276     718.402     526.538
  N     -424.961     722.188     523.999
  C     -425.911     721.307     523.624
  N     -426.488     720.335     524.359
  C     -426.006     720.338     525.613
  C     -425.045     721.179     526.142
  C     -424.505     722.143     525.273
  N     -423.530     723.040     525.649
  N     -424.803     720.874     527.469
  C     -425.605     719.865     527.735
  N     -426.344     719.501     526.641
  O     -428.523     718.767     532.358
  O     -426.315     717.745     531.545
  H     -426.752     716.588     524.492
  H     -427.950     719.029     533.104
  H     -426.252     721.388     522.596
  H     -425.689     719.356     528.688
  H     -427.939     718.610     525.688
  H     -425.820     716.919     527.167
  H     -427.544     715.120     527.020
  H     -429.550     716.881     527.860
  H     -428.314     715.449     529.482
  H     -426.906     716.541     529.357
  H     -423.187     723.686     524.958
  H     -423.168     723.004     526.589
  P     -429.598     714.821     525.364
  C     -431.783     715.659     524.197
  O     -431.151     715.219     525.391
  O     -429.439     714.017     526.745
  O     -429.146     713.986     524.212
  H     -429.524     713.061     526.575
  H     -432.810     715.880     524.398
  H     -431.722     714.889     523.457
  H     -431.292     716.539     523.837

 6  7  8  9  10  11  12  13  14  15  25  28  32  33  34  35 0
 6-311+G(2d,p)
 ****
 36  37  40 0
 6-311+G(2d,p)
 ****
 1  2  3  4  5  16  17  18  19  20  21  22  23  24 0
 3-21G
 ****
 26  27  29  30  31  38  39 41  42  43  44  45  46  47  48 0
 3-21G
 ****


