%nproc=1
%NoSave
%Mem=1900MB
#P OB98/GEN NMR

erre ene a

0 1
  C      564.079     291.998     114.506
  O      563.085     291.042     114.193
  H      564.459     292.444     113.584
  H      563.632     292.787     115.119
  H      564.900     291.537     115.064
  P      563.572     289.651     113.561
  C      563.472     288.455     115.863
  O      563.006     288.493     114.524
  C      562.307     288.284     116.838
  O      561.515     289.501     116.827
  C      561.374     287.110     116.497
  O      560.959     286.491     117.719
  C      560.169     287.798     115.865
  O      558.972     287.037     115.988
  C      560.144     289.119     116.633
  N      557.076     293.149     117.156
  C      557.871     292.499     118.031
  N      558.702     291.461     117.798
  C      558.714     291.145     116.490
  C      557.963     291.724     115.476
  C      557.099     292.761     115.856
  N      556.232     293.382     114.976
  N      558.215     291.083     114.275
  C      559.078     290.127     114.566
  N      559.408     290.128     115.893
  O      565.145     289.663     113.873
  O      563.289     289.471     112.108
  H      559.039     286.249     115.421
  H      565.616     290.118     113.151
  H      557.823     292.854     119.057
  H      559.467     289.399     113.867
  H      559.665     289.024     117.620
  H      560.364     287.965     114.803
  H      561.817     286.361     115.833
  H      562.710     288.172     117.852
  H      563.990     289.398     116.090
  H      555.573     294.036     115.362
  H      556.157     293.031     114.037
  H      564.187     287.630     115.975
  P      560.737     284.900     117.703
  C      563.288     284.374     117.835
  O      561.992     284.204     118.412
  O      560.924     284.520     116.164
  O      559.399     284.473     118.226
  H      560.348     283.772     115.929
  H      564.012     283.850     118.424
  H      563.534     285.415     117.810
  H      563.289     283.984     116.839

 6  7  8  9  10  11  12  13  14  15  25  28  32  33  34  35 0
 6-311+G(2d,p)
 ****
 36  39  40 0
 6-311+G(2d,p)
 ****
 1  2  3  4  5  16  17  18  19  20  21  22  23  24 0
 3-21G
 ****
 26  27  29  30  31  37  38  41  42  43  44  45  46  47 0
 3-21G
 ****
 48 0
 3-21G
 ****


