%nproc=1
%NoSave
%Mem=1900MB
#P OB98/GEN NMR

erre ene a

0 1
  C      305.455     516.374     -61.573
  O      305.864     515.902     -62.846
  H      306.233     516.141     -60.846
  H      304.527     515.876     -61.270
  H      305.306     517.456     -61.599
  P      304.861     516.169     -64.067
  C      304.844     513.668     -64.792
  O      304.092     514.785     -64.333
  C      303.917     512.665     -65.470
  O      302.997     512.114     -64.496
  C      303.038     513.273     -66.559
  O      303.740     513.465     -67.776
  C      301.929     512.233     -66.652
  O      302.313     511.134     -67.491
  C      301.781     511.771     -65.201
  N      296.731     511.437     -64.535
  C      297.610     510.636     -65.174
  N      298.949     510.790     -65.295
  C      299.357     511.889     -64.638
  C      298.578     512.797     -63.942
  C      297.203     512.538     -63.898
  N      296.298     513.364     -63.269
  N      299.357     513.822     -63.442
  C      300.590     513.537     -63.823
  N      300.636     512.374     -64.547
  O      305.847     516.300     -65.323
  O      303.986     517.367     -63.919
  H      303.123     510.759     -67.098
  H      305.983     517.245     -65.530
  H      297.190     509.762     -65.660
  H      301.466     514.131     -63.610
  H      301.663     510.682     -65.128
  H      301.022     512.670     -67.069
  H      302.608     514.218     -66.209
  H      304.524     511.842     -65.873
  H      305.340     513.188     -63.943
  H      305.606     514.021     -65.494
  H      295.321     513.155     -63.331
  H      296.629     514.246     -62.891
  P      303.050     514.381     -68.894
  C      303.115     512.371     -70.563
  O      302.341     513.395     -69.947
  O      304.288     514.973     -69.715
  O      302.166     515.449     -68.360
  H      304.085     515.892     -70.002
  H      302.496     511.809     -71.231
  H      303.510     511.721     -69.810
  H      303.921     512.814     -71.110

 6  7  8  9  10  11  12  13  14  15  25  28  32  33  34  35 0
 6-311+G(2d,p)
 ****
 36  37  40 0
 6-311+G(2d,p)
 ****
 1  2  3  4  5  16  17  18  19  20  21  22  23  24 0
 3-21G
 ****
 26  27  29  30  31  38  39 41  42  43  44  45  46  47  48 0
 3-21G
 ****


