%nproc=1
%NoSave
%Mem=1900MB
#P OB98/GEN NMR

erre ene a

0 1
  C     -460.850    -497.421     438.882
  O     -459.897    -497.606     437.853
  P     -458.768    -496.505     437.593
  C     -459.451    -496.238     435.133
  O     -458.389    -496.559     436.026
  C     -458.997    -496.306     433.676
  O     -457.909    -495.354     433.475
  C     -458.484    -497.680     433.222
  O     -458.843    -497.822     431.841
  C     -456.969    -497.536     433.338
  O     -456.259    -498.476     432.551
  C     -456.814    -496.085     432.895
  N     -451.778    -495.834     432.003
  C     -452.760    -496.548     431.411
  N     -454.073    -496.582     431.721
  C     -454.325    -495.761     432.756
  C     -453.431    -495.001     433.484
  C     -452.090    -495.033     433.046
  N     -451.083    -494.286     433.623
  N     -454.073    -494.332     434.514
  C     -455.336    -494.696     434.417
  N     -455.549    -495.514     433.335
  O     -457.588    -496.562     438.509
  O     -459.533    -495.108     437.736
  H     -456.594    -498.448     431.641
  H     -459.291    -494.676     438.569
  H     -452.454    -497.165     430.582
  H     -456.133    -494.410     435.096
  H     -456.870    -495.966     431.802
  H     -456.665    -497.668     434.380
  H     -458.871    -498.516     433.814
  H     -459.826    -495.976     433.047
  H     -459.789    -495.224     435.364
  H     -450.193    -494.289     433.153
  H     -451.336    -493.502     434.216
  H     -460.292    -496.924     435.298
  P     -460.387    -498.012     431.431
  C     -460.549    -500.512     430.850
  O     -460.430    -499.193     430.348
  O     -461.106    -496.761     431.065
  O     -461.029    -498.715     432.733
  H     -462.000    -498.622     432.704
  H     -459.573    -500.864     431.198
  H     -460.902    -501.171     430.052
  H     -461.259    -500.543     431.688
  H     -461.519    -498.256     438.903
  H     -461.404    -496.525     438.698
  H     -460.348    -497.342     439.823

 3  4  5  6  7  8  9  10  11  12  22  25  29  30  31  32 0
 6-311+G(2d,p)
 ****
 33  36  37 0
 6-311+G(2d,p)
 ****
 1  2  13  14  15  16  17  18  19  20  21  23  24  26 0
 3-21G
 ****
 27  28  34  35  38  39  40  41  42  43  44  45  46  47  48 0
 3-21G
 ****


