%nproc=1
%NoSave
%Mem=1900MB
#P OB98/GEN NMR

erre ene a

0 1
  C      -79.511     167.847     -83.855
  O      -80.174     168.986     -83.344
  H      -80.149     167.377     -84.607
  H      -79.328     167.128     -83.054
  H      -78.562     168.126     -84.327
  P      -79.373     169.976     -82.372
  C      -77.807     169.416     -80.398
  O      -79.052     169.155     -81.030
  C      -77.854     168.958     -78.938
  O      -78.335     167.598     -78.861
  C      -76.501     168.960     -78.240
  O      -76.107     170.277     -77.899
  C      -76.789     168.047     -77.059
  O      -77.478     168.764     -76.016
  C      -77.718     166.991     -77.706
  N      -77.020     165.758     -78.069
  C      -77.228     164.660     -77.242
  O      -77.928     164.703     -76.233
  N      -76.585     163.500     -77.613
  C      -75.716     163.367     -78.653
  O      -75.121     162.323     -78.910
  C      -75.500     164.572     -79.472
  C      -76.155     165.694     -79.149
  O      -79.992     171.318     -82.150
  O      -77.933     170.104     -83.068
  H      -76.801     169.300     -75.557
  H      -77.880     170.942     -83.564
  H      -76.718     162.700     -77.019
  H      -74.812     164.504     -80.306
  H      -76.012     166.594     -79.739
  H      -78.536     166.729     -77.018
  H      -75.886     167.632     -76.613
  H      -75.743     168.478     -78.877
  H      -78.571     169.596     -78.407
  H      -77.614     170.498     -80.433
  H      -77.015     168.891     -80.945
  P      -74.759     170.539     -77.080
  C      -73.827     169.833     -74.798
  O      -75.003     170.036     -75.572
  O      -74.204     171.923     -77.191
  O      -73.729     169.459     -77.661
  H      -73.078     169.900     -78.236
  H      -74.098     169.501     -73.818
  H      -73.284     170.752     -74.726
  H      -73.214     169.093     -75.268

 6  7  8  9  10  11  12  13  14  15  16  26  31  32  33  34  35 0
 6-311+G(2d,p)
 ****
 36  37 0
 6-311+G(2d,p)
 ****
 1  2  3  4  5  17  18  19  20  21  22  23  24  25 0
 3-21G
 ****
 27  28  29  30  38  39  40  41  42  43  44  45 0
 3-21G
 ****


