%nproc=1
%NoSave
%Mem=1900MB
#P OB98/GEN NMR

erre ene a

0 1
  C     -285.643    -212.538    -545.907
  O     -284.443    -213.296    -546.081
  P     -284.369    -214.882    -545.839
  C     -282.625    -215.497    -544.036
  O     -283.989    -215.170    -544.309
  C     -282.499    -216.411    -542.816
  O     -282.902    -215.720    -541.617
  C     -283.364    -217.669    -542.865
  O     -282.808    -218.637    -543.739
  C     -283.375    -218.073    -541.396
  O     -282.189    -218.804    -541.048
  C     -283.406    -216.703    -540.688
  N     -284.731    -216.349    -540.205
  C     -285.187    -217.030    -539.071
  O     -284.501    -217.914    -538.560
  N     -286.421    -216.697    -538.554
  C     -287.160    -215.829    -539.164
  N     -288.367    -215.537    -538.605
  C     -286.759    -215.153    -540.418
  C     -285.542    -215.459    -540.869
  O     -283.515    -215.611    -546.822
  O     -285.887    -215.382    -545.942
  H     -282.211    -218.911    -540.077
  H     -285.902    -216.297    -546.292
  H     -287.417    -214.456    -540.908
  H     -285.165    -215.004    -541.785
  H     -282.708    -216.696    -539.842
  H     -284.231    -218.711    -541.142
  H     -284.378    -217.405    -543.182
  H     -281.441    -216.680    -542.711
  H     -288.608    -216.007    -537.745
  H     -282.085    -214.563    -543.845
  H     -289.017    -214.874    -538.998
  H     -282.198    -215.979    -544.923
  P     -283.708    -219.246    -544.924
  C     -285.390    -220.634    -543.567
  O     -285.186    -219.466    -544.346
  O     -283.118    -220.418    -545.637
  O     -283.909    -218.007    -545.925
  H     -283.978    -218.344    -546.836
  H     -286.257    -220.474    -542.923
  H     -284.515    -220.848    -542.941
  H     -285.578    -221.480    -544.230
  H     -285.449    -211.508    -546.124
  H     -285.981    -212.632    -544.896
  H     -286.397    -212.907    -546.571

 3  4  5  6  7  8  9  10  11  12  13  23  27  28  29  30  32 0
 6-311+G(2d,p)
 ****
 34  35 0
 6-311+G(2d,p)
 ****
 1  2  14  15  16  17  18  19  20  21  22  24  25  26 0
 3-21G
 ****
 31  33  36  37  38  39  40  41  42  43  44  45  46 0
 3-21G
 ****


