%nproc=1
%NoSave
%Mem=1900MB
#P OB98/GEN NMR

erre ene a

0 1
  C     -167.842     124.654    -245.400
  O     -168.719     125.719    -245.708
  H     -167.339     124.874    -244.454
  H     -167.085     124.537    -246.178
  H     -168.406     123.722    -245.285
  P     -169.520     125.673    -247.092
  C     -168.531     128.023    -247.539
  O     -169.690     127.200    -247.563
  C     -168.736     129.214    -246.601
  O     -169.568     130.206    -247.235
  C     -169.433     128.860    -245.290
  O     -168.543     128.199    -244.416
  C     -169.892     130.234    -244.842
  O     -168.807     130.977    -244.261
  C     -170.323     130.866    -246.188
  N     -171.758     130.770    -246.446
  C     -172.446     131.978    -246.596
  O     -171.843     133.049    -246.501
  N     -173.797     131.941    -246.833
  C     -174.408     130.797    -246.953
  N     -175.744     130.831    -247.195
  C     -173.715     129.501    -246.838
  C     -172.412     129.558    -246.570
  O     -170.791     124.879    -247.096
  O     -168.455     125.088    -248.135
  H     -168.755     130.689    -243.327
  H     -168.554     124.121    -248.215
  H     -174.258     128.575    -246.952
  H     -171.823     128.646    -246.468
  H     -170.049     131.929    -246.219
  H     -170.684     130.187    -244.091
  H     -170.319     128.244    -245.486
  H     -167.756     129.671    -246.415
  H     -176.171     131.743    -247.285
  H     -168.359     128.377    -248.560
  H     -176.283     130.019    -247.464
  H     -167.653     127.447    -247.225
  P     -169.068     127.207    -243.268
  C     -168.461     128.845    -241.380
  O     -168.215     127.569    -241.959
  O     -169.075     125.765    -243.637
  O     -170.516     127.777    -242.910
  H     -171.172     127.514    -243.606
  H     -167.838     128.972    -240.519
  H     -169.489     128.913    -241.090
  H     -168.241     129.610    -242.095

 6  7  8  9  10  11  12  13  14  15  16  26  30  31  32  33  35 0
 6-311+G(2d,p)
 ****
 37  38 0
 6-311+G(2d,p)
 ****
 1  2  3  4  5  17  18  19  20  21  22  23  24  25 0
 3-21G
 ****
 27  28  29  34  36  39  40  41  42  43  44  45  46 0
 3-21G
 ****


