%nproc=1
%NoSave
%Mem=1900MB
#P OB98/GEN NMR

erre ene a

0 1
  C     1880.209    -315.767    -129.016
  O     1879.663    -316.920    -128.414
  H     1881.088    -316.070    -129.583
  H     1880.524    -315.050    -128.245
  H     1879.492    -315.316    -129.680
  P     1878.395    -316.722    -127.452
  C     1876.970    -318.663    -128.343
  O     1877.149    -317.257    -128.331
  C     1875.704    -319.021    -129.141
  O     1874.572    -318.290    -128.569
  C     1875.760    -318.665    -130.621
  O     1875.039    -319.663    -131.386
  C     1874.996    -317.373    -130.725
  O     1874.512    -317.119    -132.026
  C     1873.972    -317.558    -129.628
  N     1869.789    -314.618    -129.435
  C     1869.987    -315.908    -129.828
  N     1871.115    -316.614    -129.815
  C     1872.124    -315.890    -129.301
  C     1872.104    -314.583    -128.874
  C     1870.864    -313.897    -128.969
  N     1870.677    -312.592    -128.651
  N     1873.377    -314.149    -128.472
  C     1874.138    -315.222    -128.663
  N     1873.438    -316.278    -129.174
  O     1878.217    -315.341    -126.897
  O     1878.581    -317.881    -126.374
  H     1874.097    -316.237    -132.015
  H     1878.811    -318.715    -126.795
  H     1869.093    -316.421    -130.167
  H     1875.204    -315.258    -128.420
  H     1873.081    -318.142    -130.004
  H     1875.694    -316.532    -130.465
  H     1876.801    -318.597    -131.000
  H     1875.482    -320.102    -128.988
  H     1876.904    -319.080    -127.359
  H     1869.745    -312.206    -128.738
  H     1871.457    -312.048    -128.287
  H     1877.846    -319.121    -128.862
  P     1875.882    -320.673    -132.337
  C     1876.174    -322.372    -130.402
  O     1876.848    -321.595    -131.403
  O     1876.580    -320.048    -133.480
  O     1874.772    -321.745    -132.833
  H     1874.895    -321.860    -133.774
  H     1876.892    -322.938    -129.846
  H     1875.482    -323.038    -130.874
  H     1875.645    -321.719    -129.740

 6  7  8  9  10  11  12  13  14  15  25  28  32  33  34  35 0
 6-311+G(2d,p)
 ****
 36  39  40 0
 6-311+G(2d,p)
 ****
 1  2  3  4  5  16  17  18  19  20  21  22  23  24 0
 3-21G
 ****
 26  27  29  30  31  37  38  41  42  43  44  45  46  47 0
 3-21G
 ****
 48 0
 3-21G
 ****


