%nproc=1
%NoSave
%Mem=1900MB
#P OB98/GEN NMR

erre ene a

0 1
  C      157.395    -870.105    -572.674
  O      158.683    -869.612    -572.361
  H      156.832    -869.320    -573.193
  H      156.845    -870.370    -571.761
  H      157.471    -870.974    -573.328
  P      159.649    -870.513    -571.457
  C      161.088    -871.130    -573.515
  O      161.055    -870.538    -572.222
  C      162.484    -870.998    -574.116
  O      162.902    -869.616    -574.122
  C      163.560    -871.752    -573.330
  O      163.485    -873.130    -573.583
  C      164.815    -871.058    -573.828
  O      165.210    -871.553    -575.108
  C      164.326    -869.584    -573.938
  N      164.703    -868.791    -572.762
  C      165.651    -867.796    -572.968
  O      166.134    -867.602    -574.081
  N      166.038    -867.034    -571.884
  C      165.528    -867.236    -570.716
  N      165.966    -866.473    -569.676
  C      164.506    -868.287    -570.458
  C      164.146    -869.025    -571.512
  O      159.124    -871.867    -571.063
  O      159.941    -869.588    -570.178
  H      164.453    -871.374    -575.699
  H      159.273    -869.742    -569.486
  H      164.099    -868.432    -569.466
  H      163.398    -869.805    -571.420
  H      164.766    -869.106    -574.829
  H      165.640    -871.201    -573.133
  H      163.451    -871.543    -572.258
  H      162.456    -871.350    -575.163
  H      166.670    -865.784    -569.900
  H      160.351    -870.600    -574.135
  H      165.561    -866.497    -568.767
  H      160.805    -872.194    -573.470
  P      164.038    -874.191    -572.500
  C      161.653    -875.119    -572.168
  O      163.011    -875.413    -572.529
  O      164.344    -873.617    -571.166
  O      165.341    -874.811    -573.246
  H      166.096    -874.149    -573.239
  H      161.067    -876.013    -572.226
  H      161.255    -874.388    -572.841
  H      161.624    -874.737    -571.169

 6  7  8  9  10  11  12  13  14  15  16  26  30  31  32  33  35 0
 6-311+G(2d,p)
 ****
 37  38 0
 6-311+G(2d,p)
 ****
 1  2  3  4  5  17  18  19  20  21  22  23  24  25 0
 3-21G
 ****
 27  28  29  34  36  39  40  41  42  43  44  45  46 0
 3-21G
 ****


