%nproc=1
%NoSave
%Mem=1900MB
#P OB98/GEN NMR

erre ene a

0 1
  C       24.486     -43.681       9.502
  O       23.232     -43.801       8.868
  H       25.184     -44.383       9.037
  H       24.393     -43.936      10.560
  H       24.888     -42.670       9.397
  P       22.105     -42.699       9.158
  C       20.272     -44.243      10.113
  O       20.698     -43.456       9.011
  C       19.414     -45.412       9.625
  O       18.444     -44.895       8.664
  C       20.226     -46.518       8.921
  O       19.613     -47.782       9.201
  C       20.029     -46.155       7.464
  O       20.291     -47.241       6.611
  C       18.576     -45.688       7.471
  N       18.249     -44.937       6.262
  C       18.038     -45.674       5.103
  O       18.124     -46.900       5.049
  N       17.794     -44.949       3.969
  C       17.851     -43.591       3.862
  O       17.702     -42.998       2.804
  C       18.131     -42.865       5.112
  C       18.308     -43.559       6.238
  O       22.214     -41.432       8.379
  O       22.190     -42.454      10.737
  H       19.924     -47.064       5.725
  H       21.796     -41.591      10.968
  H       17.629     -45.470       3.122
  H       18.198     -41.787       5.059
  H       18.533     -43.058       7.172
  H       17.891     -46.540       7.561
  H       20.703     -45.339       7.184
  H       21.276     -46.537       9.222
  H       18.844     -45.816      10.469
  H       19.685     -43.605      10.783
  H       21.147     -44.619      10.654
  P       20.377     -48.930      10.022
  C       21.304     -50.356       8.099
  O       20.388     -50.305       9.188
  O       19.915     -49.083      11.436
  O       21.912     -48.473       9.998
  H       22.287     -48.567      10.895
  H       21.231     -51.308       7.615
  H       22.300     -50.217       8.464
  H       21.070     -49.581       7.399

 6  7  8  9  10  11  12  13  14  15  16  26  31  32  33  34  35 0
 6-311+G(2d,p)
 ****
 36  37 0
 6-311+G(2d,p)
 ****
 1  2  3  4  5  17  18  19  20  21  22  23  24  25 0
 3-21G
 ****
 27  28  29  30  38  39  40  41  42  43  44  45 0
 3-21G
 ****


