%nproc=1
%NoSave
%Mem=1900MB
#P OB98/GEN NMR

erre ene a

0 1
  C      -50.860     157.215     -11.404
  O      -49.647     156.657     -10.926
  P      -48.533     157.658     -10.361
  C      -46.542     157.085     -11.938
  O      -47.107     156.990     -10.639
  C      -45.255     156.257     -12.006
  O      -44.258     156.807     -11.115
  C      -45.433     154.810     -11.571
  O      -46.021     154.030     -12.603
  C      -44.006     154.407     -11.238
  O      -43.292     154.020     -12.425
  C      -43.432     155.717     -10.658
  N      -43.329     155.685      -9.205
  C      -42.188     155.080      -8.691
  O      -41.319     154.571      -9.401
  N      -42.095     155.037      -7.323
  C      -43.039     155.483      -6.440
  O      -42.923     155.368      -5.223
  C      -44.237     156.092      -7.041
  C      -44.330     156.153      -8.375
  O      -48.699     157.555      -8.769
  O      -48.664     159.066     -10.840
  H      -42.389     153.781     -12.145
  H      -48.529     158.426      -8.360
  H      -41.264     154.626      -6.930
  H      -45.009     156.451      -6.374
  H      -45.211     156.583      -8.837
  H      -42.430     155.903     -11.069
  H      -43.968     153.557     -10.553
  H      -46.044     154.766     -10.657
  H      -44.863     156.308     -13.030
  H      -46.320     158.133     -12.162
  H      -47.268     156.723     -12.673
  P      -47.176     153.001     -12.175
  C      -46.074     151.272     -13.793
  O      -47.247     151.931     -13.362
  O      -48.478     153.922     -12.356
  O      -46.992     152.457     -10.797
  H      -48.372     154.558     -13.082
  H      -45.390     151.079     -12.960
  H      -45.569     151.893     -14.538
  H      -46.355     150.323     -14.253
  H      -51.502     156.431     -11.747
  H      -50.651     157.884     -12.212
  H      -51.342     157.751     -10.613

 3  4  5  6  7  8  9  10  11  12  13  23  28  29  30  31  32 0
 6-311+G(2d,p)
 ****
 33  34 0
 6-311+G(2d,p)
 ****
 1  2  14  15  16  17  18  19  20  21  22  24  25  26 0
 3-21G
 ****
 27  35  36  37  38  39  40  41  42  43  44  45 0
 3-21G
 ****


