%nproc=1
%NoSave
%Mem=1900MB
#P OB98/GEN NMR

erre ene a

0 1
  C      119.035     -54.662     -13.083
  O      119.812     -54.699     -11.903
  H      118.619     -53.658     -13.199
  H      118.211     -55.374     -12.997
  H      119.643     -54.899     -13.961
  P      120.831     -55.926     -11.731
  C      120.549     -58.450     -11.190
  O      119.973     -57.154     -11.142
  C      120.225     -59.227      -9.911
  O      121.136     -58.786      -8.856
  C      118.789     -59.024      -9.401
  O      118.315     -60.255      -8.842
  C      118.971     -58.031      -8.266
  O      117.908     -58.085      -7.320
  C      120.319     -58.480      -7.710
  N      119.544     -55.768      -3.556
  C      118.866     -56.861      -4.053
  N      117.771     -57.264      -3.376
  N      119.225     -57.506      -5.134
  C      120.351     -57.012      -5.705
  C      121.111     -55.936      -5.317
  C      120.692     -55.217      -4.129
  O      121.241     -54.230      -3.652
  N      122.138     -55.717      -6.200
  C      121.988     -56.645      -7.130
  N      120.915     -57.453      -6.875
  O      121.728     -55.462     -10.488
  O      121.658     -56.243     -12.931
  H      117.080     -57.825      -7.774
  H      122.544     -55.032     -10.811
  H      119.217     -55.296      -2.733
  H      122.606     -56.759      -8.007
  H      120.238     -59.387      -7.095
  H      119.030     -57.011      -8.666
  H      117.448     -56.839      -2.521
  H      118.088     -58.671     -10.167
  H      117.282     -58.091      -3.705
  H      120.428     -60.290     -10.086
  H      121.638     -58.358     -11.284
  H      120.167     -58.984     -12.066
  P      117.377     -61.184      -9.754
  C      115.078     -60.981     -10.961
  O      116.064     -60.356     -10.152
  O      116.825     -62.270      -8.714
  O      118.092     -61.835     -10.896
  H      116.715     -63.130      -9.159
  H      114.273     -60.298     -11.133
  H      114.707     -61.852     -10.462
  H      115.512     -61.264     -11.897

 6  7  8  9  10  11  12  13  14  15  26  29  33  34 0
 6-311+G(2d,p)
 ****
 36  38  39  40  41 0
 6-311+G(2d,p)
 ****
 1  2  3  4  5  16  17  18  19  20  21  22  23  24  25 0
 3-21G
 ****
 27  28  30  31  32  35  37  42  43  44  45  46  47 0
 3-21G
 ****
 48  49 0
 3-21G
 ****


