%nproc=1
%NoSave
%Mem=1900MB
#P OB98/GEN NMR

erre ene a

0 1
  C     -420.810     278.704    -230.902
  O     -420.762     277.816    -229.811
  H     -421.504     278.311    -231.651
  H     -419.818     278.790    -231.361
  H     -421.157     279.692    -230.586
  P     -419.922     278.271    -228.520
  C     -421.306     276.514    -227.194
  O     -420.022     277.068    -227.456
  C     -421.176     275.266    -226.314
  O     -420.404     274.265    -227.033
  C     -420.484     275.535    -224.977
  O     -421.122     274.744    -223.964
  C     -419.070     275.020    -225.194
  O     -418.427     274.638    -223.977
  C     -419.313     273.865    -226.180
  N     -418.106     273.559    -226.952
  C     -417.054     272.945    -226.272
  O     -417.172     272.684    -225.068
  N     -415.891     272.677    -226.936
  C     -415.747     273.082    -228.167
  N     -414.556     272.816    -228.768
  C     -416.802     273.796    -228.910
  C     -417.950     273.997    -228.250
  O     -420.835     279.416    -227.867
  O     -418.536     278.741    -228.793
  H     -417.475     274.512    -224.158
  H     -420.291     280.090    -227.419
  H     -416.631     274.138    -229.918
  H     -418.779     274.526    -228.711
  H     -419.620     272.953    -225.647
  H     -418.465     275.800    -225.667
  H     -420.494     276.585    -224.682
  H     -422.178     274.845    -226.161
  H     -413.854     272.337    -228.220
  H     -421.771     276.229    -228.146
  H     -414.315     273.124    -229.696
  H     -421.936     277.263    -226.705
  P     -422.249     275.482    -223.083
  C     -423.806     273.447    -222.654
  O     -422.903     274.399    -222.107
  O     -423.406     275.785    -224.149
  O     -421.762     276.725    -222.423
  H     -423.442     276.746    -224.343
  H     -424.153     272.798    -221.878
  H     -423.306     272.870    -223.404
  H     -424.639     273.956    -223.092

 6  7  8  9  10  11  12  13  14  15  16  26  30  31  32  33  35 0
 6-311+G(2d,p)
 ****
 37  38 0
 6-311+G(2d,p)
 ****
 1  2  3  4  5  17  18  19  20  21  22  23  24  25 0
 3-21G
 ****
 27  28  29  34  36  39  40  41  42  43  44  45  46 0
 3-21G
 ****


