%nproc=1
%NoSave
%Mem=1900MB
#P OB98/GEN NMR

erre ene a

0 1
  C     -225.009     305.173     422.308
  O     -225.997     304.197     421.958
  P     -227.115     304.665     420.908
  C     -228.812     305.551     422.659
  O     -228.541     304.598     421.640
  C     -230.315     305.854     422.731
  O     -230.788     306.568     421.567
  C     -231.180     304.602     422.822
  O     -231.183     304.117     424.160
  C     -232.537     305.125     422.378
  O     -233.247     305.746     423.466
  C     -232.158     306.173     421.314
  N     -235.127     306.179     417.203
  C     -235.387     306.622     418.486
  N     -236.609     307.160     418.700
  N     -234.533     306.536     419.469
  C     -233.354     305.973     419.115
  C     -232.967     305.528     417.871
  C     -233.921     305.618     416.788
  O     -233.728     305.268     415.630
  N     -231.669     305.078     417.879
  C     -231.325     305.136     419.155
  N     -232.287     305.737     419.934
  O     -227.157     303.463     419.854
  O     -226.796     305.968     420.241
  H     -233.953     306.312     423.102
  H     -226.786     303.753     419.002
  H     -235.826     306.260     416.483
  H     -230.383     304.790     419.561
  H     -232.776     307.077     421.406
  H     -233.179     304.322     422.008
  H     -237.318     307.258     417.983
  H     -230.818     303.838     422.122
  H     -236.820     307.500     419.627
  H     -230.480     306.488     423.609
  H     -228.262     306.476     422.465
  H     -228.451     305.165     423.609
  P     -229.976     303.172     424.615
  C     -231.751     301.368     425.203
  O     -230.576     302.058     425.597
  O     -229.118     304.114     425.582
  O     -229.136     302.643     423.492
  H     -228.163     304.013     425.381
  H     -231.737     300.371     425.647
  H     -231.819     301.278     424.118
  H     -232.626     301.910     425.580
  H     -224.322     304.749     423.010
  H     -225.488     306.024     422.747
  H     -224.479     305.476     421.429

 3  4  5  6  7  8  9  10  11  12  23  26  30  31 0
 6-311+G(2d,p)
 ****
 33  35  36  37  38 0
 6-311+G(2d,p)
 ****
 1  2  13  14  15  16  17  18  19  20  21  22  24  25 0
 3-21G
 ****
 27  28  29  32  34  39  40  41  42  43  44  45  46  47  48  49 0
 3-21G
 ****


