%nproc=1
%NoSave
%Mem=1900MB
#P OB98/GEN NMR

erre ene a

0 1
  C     1163.914    -740.283      92.174
  O     1165.240    -740.014      92.546
  P     1166.112    -741.130      93.300
  C     1167.840    -739.282      93.790
  O     1167.123    -740.369      94.320
  C     1168.557    -738.549      94.907
  O     1167.602    -737.926      95.814
  C     1169.414    -739.425      95.790
  O     1170.649    -739.747      95.144
  C     1169.575    -738.548      97.038
  O     1170.625    -737.570      96.829
  C     1168.220    -737.872      97.112
  N     1166.931    -737.964     102.063
  C     1167.959    -737.357     101.417
  N     1168.256    -737.415     100.085
  C     1167.360    -738.196      99.432
  C     1166.319    -738.905      99.965
  C     1166.072    -738.756     101.379
  N     1165.012    -739.311     102.026
  N     1165.655    -739.623      98.985
  C     1166.324    -739.373      97.880
  N     1167.334    -738.448      98.095
  O     1166.759    -742.152      92.425
  O     1165.044    -741.833      94.295
  H     1171.436    -738.059      96.553
  H     1164.981    -742.772      94.064
  H     1168.620    -736.760     102.028
  H     1166.096    -739.807      96.912
  H     1168.319    -736.809      97.395
  H     1169.839    -739.131      97.923
  H     1168.874    -740.331      96.066
  H     1169.165    -737.737      94.493
  H     1167.115    -738.602      93.303
  H     1164.859    -739.014     102.978
  H     1164.208    -739.612     101.496
  H     1168.558    -739.644      93.042
  P     1171.472    -741.033      95.626
  C     1173.245    -740.243      93.907
  O     1172.991    -740.778      95.214
  O     1170.938    -742.377      95.205
  O     1171.523    -740.892      97.229
  H     1171.522    -741.781      97.617
  H     1173.132    -741.054      93.180
  H     1174.230    -739.823      93.905
  H     1172.512    -739.451      93.694
  H     1163.499    -739.425      91.687
  H     1163.338    -740.511      93.046
  H     1163.894    -741.118      91.505

 3  4  5  6  7  8  9  10  11  12  22  25  29  30  31  32 0
 6-311+G(2d,p)
 ****
 33  36  37 0
 6-311+G(2d,p)
 ****
 1  2  13  14  15  16  17  18  19  20  21  23  24  26 0
 3-21G
 ****
 27  28  34  35  38  39  40  41  42  43  44  45  46  47  48 0
 3-21G
 ****


