%nproc=1
%NoSave
%Mem=1900MB
#P OB98/GEN NMR

erre ene a

0 1
  C      285.715    -402.200    -171.259
  O      285.107    -401.353    -172.213
  P      285.158    -401.735    -173.769
  C      283.129    -403.355    -173.492
  O      284.467    -403.177    -173.917
  C      282.200    -403.603    -174.691
  O      282.810    -404.614    -175.523
  C      280.822    -404.137    -174.323
  O      279.942    -403.934    -175.428
  C      281.092    -405.624    -174.168
  O      279.903    -406.408    -174.271
  C      282.163    -405.883    -175.263
  N      283.152    -406.889    -174.826
  C      282.851    -408.222    -175.084
  O      281.852    -408.574    -175.713
  N      283.692    -409.147    -174.520
  C      284.750    -408.854    -173.703
  O      285.290    -409.666    -172.970
  C      285.149    -407.442    -173.664
  C      284.332    -406.529    -174.198
  O      286.706    -402.023    -174.012
  O      284.633    -400.685    -174.690
  H      280.185    -407.349    -174.218
  H      287.149    -401.232    -174.381
  H      283.389    -410.116    -174.583
  H      286.073    -407.183    -173.151
  H      284.580    -405.468    -174.137
  H      281.700    -406.246    -176.189
  H      281.525    -405.806    -173.172
  H      280.392    -403.705    -173.411
  H      282.117    -402.682    -175.279
  H      282.812    -402.475    -172.929
  H      283.063    -404.207    -172.803
  P      278.385    -403.687    -175.124
  C      278.823    -401.183    -175.526
  O      278.251    -402.155    -174.666
  O      277.729    -404.686    -174.220
  O      277.727    -403.682    -176.581
  H      276.763    -403.840    -176.515
  H      278.259    -400.251    -175.431
  H      278.788    -401.514    -176.575
  H      279.854    -401.011    -175.234
  H      285.582    -401.788    -170.280
  H      286.760    -402.284    -171.471
  H      285.263    -403.169    -171.303

 3  4  5  6  7  8  9  10  11  12  13  23  28  29  30  31  32 0
 6-311+G(2d,p)
 ****
 33  34 0
 6-311+G(2d,p)
 ****
 1  2  14  15  16  17  18  19  20  21  22  24  25  26  27 0
 3-21G
 ****
 35  36  37  38  39  40  41  42  43  44  45 0
 3-21G
 ****


