%nproc=1
%NoSave
%Mem=1900MB
#P OB98/GEN NMR

erre ene a

0 1
  C     -152.905     381.595    -176.414
  O     -154.080     382.379    -176.474
  H     -152.244     381.839    -177.249
  H     -152.384     381.808    -175.477
  H     -153.161     380.530    -176.442
  P     -154.978     382.239    -177.794
  C     -154.735     383.156    -180.218
  O     -154.312     383.234    -178.864
  C     -154.224     384.376    -180.978
  O     -152.783     384.315    -181.100
  C     -154.758     384.484    -182.402
  O     -156.049     385.062    -182.456
  C     -153.719     385.397    -183.025
  O     -153.950     386.756    -182.615
  C     -152.420     384.865    -182.399
  N     -149.633     383.902    -186.587
  C     -150.069     385.058    -186.041
  N     -150.787     385.232    -184.912
  C     -151.044     384.049    -184.327
  C     -150.663     382.791    -184.765
  C     -149.925     382.742    -185.960
  N     -149.508     381.561    -186.540
  N     -151.135     381.816    -183.909
  C     -151.774     382.474    -182.965
  N     -151.776     383.827    -183.188
  O     -156.341     382.987    -177.411
  O     -155.195     380.849    -178.293
  H     -153.277     387.309    -183.064
  H     -157.041     382.770    -178.056
  H     -149.806     385.962    -186.578
  H     -152.257     382.027    -182.106
  H     -151.676     385.653    -182.231
  H     -153.746     385.386    -184.120
  H     -154.733     383.513    -182.913
  H     -154.469     385.274    -180.398
  H     -155.830     383.137    -180.250
  H     -149.116     381.618    -187.467
  H     -149.842     380.690    -186.160
  H     -154.343     382.240    -180.669
  P     -156.931     384.783    -183.772
  C     -156.696     385.398    -186.285
  O     -156.278     385.654    -184.950
  O     -158.296     385.556    -183.454
  O     -157.154     383.339    -184.076
  H     -159.056     385.101    -183.865
  H     -156.176     386.052    -186.953
  H     -157.749     385.567    -186.368
  H     -156.477     384.382    -186.539

 6  7  8  9  10  11  12  13  14  15  25  28  32  33  34  35 0
 6-311+G(2d,p)
 ****
 36  39  40 0
 6-311+G(2d,p)
 ****
 1  2  3  4  5  16  17  18  19  20  21  22  23  24 0
 3-21G
 ****
 26  27  29  30  31  37  38  41  42  43  44  45  46  47 0
 3-21G
 ****
 48 0
 3-21G
 ****


