%nproc=1
%NoSave
%Mem=1900MB
#P OB98/GEN NMR

erre ene a

0 1
  C     -502.574     609.958    -259.997
  O     -501.154     610.080    -259.855
  P     -500.350     610.624    -261.141
  C     -497.994     609.581    -261.518
  O     -498.785     610.531    -260.815
  C     -496.550     609.621    -261.010
  O     -495.882     610.848    -261.383
  C     -496.437     609.540    -259.495
  O     -496.673     608.220    -259.032
  C     -495.015     610.035    -259.287
  O     -494.063     608.979    -259.559
  C     -494.883     611.123    -260.362
  N     -492.648     615.087    -258.029
  C     -492.168     613.889    -258.417
  N     -492.831     612.879    -259.020
  C     -494.107     613.224    -259.254
  C     -494.741     614.413    -258.930
  C     -493.940     615.378    -258.278
  N     -494.434     616.612    -257.878
  N     -496.060     614.412    -259.319
  C     -496.239     613.214    -259.854
  N     -495.094     612.475    -259.846
  O     -500.662     612.194    -261.125
  O     -500.766     609.986    -262.423
  H     -494.220     608.278    -258.893
  H     -501.266     612.420    -261.867
  H     -491.119     613.696    -258.192
  H     -497.174     612.849    -260.258
  H     -493.903     611.109    -260.853
  H     -494.820     610.383    -258.270
  H     -497.147     610.232    -259.022
  H     -496.014     608.777    -261.477
  H     -498.007     609.803    -262.598
  H     -493.821     617.219    -257.349
  H     -495.423     616.800    -257.972
  H     -498.433     608.591    -261.388
  P     -497.742     608.031    -257.847
  C     -496.266     606.090    -257.023
  O     -497.555     606.484    -257.420
  O     -499.119     608.021    -258.644
  O     -497.632     609.013    -256.724
  H     -499.074     607.453    -259.436
  H     -496.295     605.030    -256.735
  H     -495.936     606.676    -256.166
  H     -495.562     606.208    -257.853
  H     -502.993     609.590    -259.084
  H     -502.796     609.276    -260.792
  H     -502.994     610.916    -260.222

 3  4  5  6  7  8  9  10  11  12  22  25  29  30  31  32 0
 6-311+G(2d,p)
 ****
 33  36  37 0
 6-311+G(2d,p)
 ****
 1  2  13  14  15  16  17  18  19  20  21  23  24  26 0
 3-21G
 ****
 27  28  34  35  38  39  40  41  42  43  44  45  46  47  48 0
 3-21G
 ****


