%nproc=1
%NoSave
%Mem=1900MB
#P OB98/GEN NMR

erre ene a

0 1
  C     -249.194     101.497      99.901
  O     -249.118     101.626      98.495
  H     -249.708     102.374     100.306
  H     -248.196     101.439     100.343
  H     -249.770     100.605     100.165
  P     -248.187     100.595      97.691
  C     -246.181     102.204      97.447
  O     -246.675     101.010      98.050
  C     -244.895     102.673      98.133
  O     -245.142     102.925      99.531
  C     -243.775     101.644      98.105
  O     -243.226     101.420      96.823
  C     -242.873     102.111      99.239
  O     -241.932     103.104      98.841
  C     -243.894     102.725     100.226
  N     -244.064     101.901     101.419
  C     -243.011     101.929     102.329
  O     -241.981     102.580     102.156
  N     -243.163     101.144     103.439
  C     -244.215     100.314     103.694
  O     -244.273      99.603     104.689
  C     -245.286     100.308     102.683
  C     -245.165     101.089     101.606
  O     -248.452     100.487      96.219
  O     -248.380      99.215      98.480
  H     -242.426     103.942      98.737
  H     -248.074      98.450      97.938
  H     -242.416     101.159     104.115
  H     -246.136      99.659     102.851
  H     -245.941     101.101     100.845
  H     -243.557     103.717     100.551
  H     -242.302     101.282      99.664
  H     -244.193     100.680      98.424
  H     -244.577     103.613      97.668
  H     -246.950     102.976      97.559
  H     -246.005     102.033      96.380
  P     -242.810      99.974      96.288
  C     -240.318     100.686      96.490
  O     -241.297      99.685      96.748
  O     -243.210      99.634      94.888
  O     -243.653      99.015      97.275
  H     -243.920      98.227      96.764
  H     -239.366     100.355      96.849
  H     -240.593     101.591      96.990
  H     -240.259     100.864      95.437

 6  7  8  9  10  11  12  13  14  15  16  26  31  32  33  34  35 0
 6-311+G(2d,p)
 ****
 36  37 0
 6-311+G(2d,p)
 ****
 1  2  3  4  5  17  18  19  20  21  22  23  24  25 0
 3-21G
 ****
 27  28  29  30  38  39  40  41  42  43  44  45 0
 3-21G
 ****


