%nproc=1
%NoSave
%Mem=1900MB
#P OB98/GEN NMR

erre ene a

0 1
  C     -135.615    -904.897     551.663
  O     -135.791    -906.223     552.111
  P     -135.263    -906.773     553.511
  C     -133.121    -907.984     554.400
  O     -133.784    -907.371     553.303
  C     -131.996    -908.902     553.914
  O     -132.581    -910.158     553.458
  C     -131.257    -908.312     552.699
  O     -129.841    -908.476     552.735
  C     -131.995    -908.913     551.508
  O     -131.246    -908.893     550.294
  C     -132.356    -910.309     552.047
  N     -134.234    -912.737     547.987
  C     -132.917    -912.505     548.322
  N     -131.993    -912.774     547.375
  N     -132.540    -911.991     549.473
  C     -133.580    -911.648     550.279
  C     -134.922    -911.830     550.053
  C     -135.320    -912.430     548.798
  O     -136.483    -912.555     548.405
  N     -135.685    -911.315     551.068
  C     -134.810    -910.772     551.889
  N     -133.512    -910.916     551.430
  O     -136.225    -907.564     554.332
  O     -134.964    -905.387     554.305
  H     -130.350    -909.207     550.497
  H     -135.157    -905.556     555.254
  H     -134.464    -913.054     547.057
  H     -135.048    -910.236     552.804
  H     -131.530    -911.013     551.905
  H     -132.894    -908.322     551.348
  H     -132.264    -913.023     546.429
  H     -131.382    -907.219     552.667
  H     -131.063    -912.381     547.496
  H     -131.313    -909.137     554.748
  H     -133.876    -908.568     554.936
  H     -132.725    -907.225     555.082
  P     -128.716    -907.783     551.824
  C     -127.620    -908.261     549.560
  O     -128.769    -908.444     550.366
  O     -127.325    -908.308     552.399
  O     -128.753    -906.279     551.825
  H     -126.675    -907.574     552.387
  H     -127.870    -908.499     548.512
  H     -126.820    -908.936     549.886
  H     -127.282    -907.222     549.594
  H     -136.060    -904.785     550.696
  H     -134.570    -904.677     551.602
  H     -136.082    -904.223     552.351

 3  4  5  6  7  8  9  10  11  12  23  26  30  31 0
 6-311+G(2d,p)
 ****
 33  35  36  37  38 0
 6-311+G(2d,p)
 ****
 1  2  13  14  15  16  17  18  19  20  21  22  24  25 0
 3-21G
 ****
 27  28  29  32  34  39  40  41  42  43  44  45  46  47  48  49 0
 3-21G
 ****


