%nproc=1
%NoSave
%Mem=1900MB
#P OB98/GEN NMR

erre ene a

0 1
  C      102.738     179.922     172.679
  O      101.391     180.298     172.468
  H      102.962     180.012     173.746
  H      103.404     180.587     172.122
  H      102.898     178.886     172.372
  P      100.802     180.059     170.990
  C      100.274     177.489     171.129
  O       99.788     178.821     171.129
  C       99.137     176.505     171.412
  O       98.377     176.985     172.546
  C       98.168     176.326     170.240
  O       97.753     174.957     170.198
  C       96.992     177.213     170.614
  O       95.788     176.801     169.973
  C       96.996     177.098     172.147
  N       96.344     178.239     172.791
  C       95.089     178.009     173.363
  O       94.570     176.893     173.293
  N       94.431     179.053     173.960
  C       94.949     180.246     173.929
  N       94.235     181.243     174.523
  C       96.248     180.544     173.292
  C       96.887     179.507     172.758
  O      102.067     179.436     170.234
  O      100.235     181.284     170.352
  H       95.892     176.946     169.004
  H      102.561     178.792     170.767
  H       96.630     181.556     173.279
  H       97.850     179.636     172.274
  H       96.482     176.183     172.466
  H       97.192     178.248     170.314
  H       98.593     176.611     169.280
  H       99.578     175.547     171.712
  H       93.340     180.997     174.932
  H      101.056     177.370     171.885
  H       94.514     182.212     174.511
  H      100.714     177.290     170.147
  P       97.732     174.189     168.791
  C      100.084     173.142     168.657
  O       98.701     172.912     168.878
  O       97.918     175.047     167.581
  O       96.274     173.510     168.778
  H       95.921     173.566     167.868
  H      100.617     172.218     168.742
  H      100.451     173.834     169.386
  H      100.226     173.547     167.677

 6  7  8  9  10  11  12  13  14  15  16  26  30  31  32  33  35 0
 6-311+G(2d,p)
 ****
 37  38 0
 6-311+G(2d,p)
 ****
 1  2  3  4  5  17  18  19  20  21  22  23  24  25 0
 3-21G
 ****
 27  28  29  34  36  39  40  41  42  43  44  45  46 0
 3-21G
 ****


