%nproc=1
%NoSave
%Mem=1900MB
#P OB98/GEN NMR

erre ene a

0 1
  C       28.798     189.165    -235.588
  O       29.694     189.689    -236.550
  P       31.204     190.089    -236.212
  C       31.829     190.723    -238.658
  O       31.694     191.160    -237.312
  C       32.335     191.820    -239.600
  O       33.610     192.310    -239.121
  C       32.592     191.244    -240.994
  O       31.525     191.109    -241.914
  C       33.803     192.009    -241.519
  O       33.440     193.079    -242.396
  C       34.463     192.551    -240.252
  N       39.480     193.138    -240.669
  C       38.482     194.076    -240.808
  N       38.865     195.276    -241.307
  N       37.224     193.856    -240.508
  C       36.990     192.580    -240.117
  C       37.895     191.568    -239.926
  C       39.283     191.842    -240.222
  O       40.187     191.007    -240.190
  N       37.280     190.385    -239.593
  C       35.994     190.671    -239.618
  N       35.767     191.982    -239.972
  O       32.124     188.976    -235.836
  O       31.002     191.013    -234.903
  H       34.255     193.518    -242.693
  H       31.774     190.870    -234.325
  H       40.417     193.343    -240.989
  H       35.196     189.969    -239.425
  H       34.596     193.636    -240.321
  H       34.450     191.346    -242.104
  H       39.784     195.435    -241.680
  H       32.950     190.221    -240.850
  H       38.137     195.928    -241.579
  H       31.666     192.686    -239.594
  H       30.852     190.354    -238.983
  H       32.519     189.872    -238.693
  P       31.126     189.778    -242.708
  C       29.086     191.152    -243.410
  O       30.020     190.164    -243.802
  O       30.300     188.915    -241.648
  O       32.280     188.990    -243.236
  H       30.316     187.974    -241.906
  H       28.221     191.113    -244.080
  H       29.548     192.141    -243.487
  H       28.744     190.990    -242.381
  H       27.851     188.975    -236.049
  H       28.673     189.872    -234.794
  H       29.192     188.252    -235.194

 3  4  5  6  7  8  9  10  11  12  23  26  30  31 0
 6-311+G(2d,p)
 ****
 33  35  36  37  38 0
 6-311+G(2d,p)
 ****
 1  2  13  14  15  16  17  18  19  20  21  22  24  25 0
 3-21G
 ****
 27  28  29  32  34  39  40  41  42  43  44  45  46  47  48  49 0
 3-21G
 ****


