%nproc=1
%NoSave
%Mem=1900MB
#P OB98/GEN NMR

erre ene a

0 1
  C       31.605      70.635      13.622
  O       31.270      69.770      14.708
  P       32.330      69.533      15.884
  C       33.057      70.668      18.091
  O       32.134      70.658      17.009
  C       33.042      72.034      18.781
  O       33.291      73.106      17.841
  C       31.692      72.370      19.401
  O       31.305      71.618      20.531
  C       31.777      73.878      19.563
  O       32.471      74.240      20.756
  C       32.597      74.280      18.314
  N       31.769      74.869      17.262
  C       32.000      76.212      16.983
  O       32.811      76.900      17.597
  N       31.232      76.754      15.987
  C       30.256      76.108      15.286
  O       29.582      76.650      14.419
  C       30.041      74.698      15.643
  C       30.795      74.150      16.598
  O       33.738      69.305      15.450
  O       31.756      68.219      16.614
  H       32.381      75.205      20.865
  H       32.516      67.650      16.842
  H       31.391      77.725      15.765
  H       29.272      74.155      15.111
  H       30.653      73.111      16.876
  H       33.367      75.014      18.582
  H       30.784      74.334      19.621
  H       30.918      72.179      18.643
  H       33.840      72.058      19.525
  H       34.060      70.440      17.724
  H       32.794      69.866      18.790
  P       29.976      70.724      20.580
  C       29.054      68.797      19.112
  O       30.190      69.446      19.638
  O       28.667      71.435      20.481
  O       30.089      70.070      22.045
  H       29.188      69.953      22.400
  H       29.386      67.945      18.512
  H       28.488      69.476      18.471
  H       28.417      68.428      19.920
  H       30.787      70.677      12.934
  H       32.473      70.260      13.122
  H       31.806      71.617      13.997

 3  4  5  6  7  8  9  10  11  12  13  23  28  29  30  31  32 0
 6-311+G(2d,p)
 ****
 33  34 0
 6-311+G(2d,p)
 ****
 1  2  14  15  16  17  18  19  20  21  22  24  25  26  27 0
 3-21G
 ****
 35  36  37  38  39  40  41  42  43  44  45 0
 3-21G
 ****


