%nproc=1
%NoSave
%Mem=1900MB
#P OB98/GEN NMR

erre ene a

0 1
  C      142.800      65.419     -58.005
  O      141.492      64.938     -58.246
  P      140.217      65.909     -58.199
  C      139.494      67.966     -59.563
  O      140.581      67.152     -59.152
  C      139.739      69.437     -59.223
  O      139.501      69.653     -57.803
  C      141.156      69.940     -59.535
  O      141.022      71.308     -59.926
  C      141.844      69.836     -58.188
  O      143.017      70.637     -58.105
  C      140.699      70.237     -57.246
  N      140.941      69.802     -55.876
  C      141.939      70.478     -55.171
  O      142.625      71.338     -55.732
  N      142.183      70.130     -53.866
  C      141.552      69.119     -53.347
  N      141.829      68.821     -52.050
  C      140.580      68.300     -54.098
  C      140.312      68.703     -55.337
  O      139.753      66.280     -56.832
  O      139.116      65.126     -59.056
  H      143.364      70.585     -57.191
  H      138.721      64.390     -58.523
  H      140.121      67.435     -53.641
  H      139.613      68.166     -55.967
  H      140.564      71.326     -57.249
  H      142.140      68.795     -58.002
  H      141.664      69.362     -60.311
  H      139.003      70.038     -59.769
  H      142.490      69.419     -51.569
  H      138.597      67.626     -59.037
  H      141.334      68.114     -51.527
  H      139.318      67.840     -60.638
  P      142.095      72.013     -60.887
  C      142.923      71.596     -63.274
  O      142.341      71.019     -62.118
  O      143.336      72.492     -60.209
  O      141.289      73.229     -61.556
  H      141.926      73.857     -61.957
  H      143.298      70.797     -63.919
  H      143.755      72.253     -63.007
  H      142.167      72.167     -63.817
  H      143.497      64.611     -58.085
  H      142.850      65.838     -57.022
  H      143.042      66.172     -58.726

 3  4  5  6  7  8  9  10  11  12  13  23  27  28  29  30  32 0
 6-311+G(2d,p)
 ****
 34  35 0
 6-311+G(2d,p)
 ****
 1  2  14  15  16  17  18  19  20  21  22  24  25  26 0
 3-21G
 ****
 31  33  36  37  38  39  40  41  42  43  44  45  46 0
 3-21G
 ****


