%nproc=1
%NoSave
%Mem=1900MB
#P OB98/GEN NMR

erre ene a

0 1
  C      485.327     521.620     686.717
  O      484.644     521.333     687.940
  P      483.987     522.551     688.749
  C      481.794     523.176     687.533
  O      482.387     522.455     688.611
  C      480.400     523.694     687.934
  O      479.860     524.488     686.844
  C      479.359     522.599     688.204
  O      479.257     522.076     689.527
  C      478.055     523.355     687.924
  O      477.670     524.098     689.098
  C      478.437     524.314     686.805
  N      475.056     524.892     683.000
  C      475.198     525.528     684.188
  N      476.128     525.306     685.144
  C      476.968     524.338     684.771
  C      476.945     523.602     683.592
  C      475.927     523.907     682.686
  N      475.772     523.257     681.481
  N      477.973     522.675     683.582
  C      478.593     522.837     684.735
  N      478.034     523.838     685.486
  O      484.569     523.902     688.491
  O      484.212     522.112     690.277
  H      477.846     523.513     689.865
  H      484.422     522.911     690.808
  H      474.472     526.308     684.395
  H      479.442     522.259     685.064
  H      477.975     525.305     686.934
  H      477.224     522.677     687.700
  H      479.470     521.766     687.486
  H      480.499     524.339     688.813
  H      481.709     522.522     686.658
  H      474.987     523.500     680.904
  H      476.380     522.477     681.251
  H      482.474     523.990     687.266
  P      479.338     520.500     689.809
  C      481.771     519.747     689.255
  O      480.857     520.209     690.219
  O      478.806     519.636     688.717
  O      478.556     520.358     691.201
  H      479.012     520.758     691.957
  H      482.791     519.815     689.669
  H      481.722     520.350     688.349
  H      481.563     518.701     689.020
  H      485.707     520.711     686.299
  H      486.138     522.290     686.910
  H      484.647     522.073     686.026

 3  4  5  6  7  8  9  10  11  12  22  25  29  30  31  32 0
 6-311+G(2d,p)
 ****
 33  36  37 0
 6-311+G(2d,p)
 ****
 1  2  13  14  15  16  17  18  19  20  21  23  24  26 0
 3-21G
 ****
 27  28  34  35  38  39  40  41  42  43  44  45  46  47  48 0
 3-21G
 ****


