%nproc=1
%NoSave
%Mem=1900MB
#P OB98/GEN NMR

erre ene a

0 1
  C       68.992    -609.139    -175.110
  O       68.625    -608.178    -176.086
  H       68.104    -609.709    -174.829
  H       69.394    -608.640    -174.223
  H       69.736    -609.825    -175.523
  P       69.789    -607.207    -176.613
  C       67.911    -605.438    -176.888
  O       69.020    -606.100    -177.492
  C       68.038    -603.924    -177.063
  O       69.145    -603.418    -176.290
  C       68.276    -603.483    -178.506
  O       67.042    -603.399    -179.203
  C       68.872    -602.101    -178.279
  O       67.821    -601.145    -178.028
  C       69.719    -602.293    -177.011
  N       74.333    -600.157    -177.703
  C       73.103    -599.625    -177.693
  N       71.913    -600.254    -177.559
  C       72.090    -601.586    -177.411
  C       73.301    -602.268    -177.402
  C       74.464    -601.498    -177.550
  N       75.735    -602.048    -177.567
  N       73.094    -603.626    -177.237
  C       71.785    -603.742    -177.089
  N       71.131    -602.546    -177.223
  O       70.950    -607.881    -177.270
  O       70.143    -606.402    -175.273
  H       67.171    -601.248    -178.749
  H       69.331    -606.180    -174.785
  H       73.047    -598.548    -177.805
  H       71.270    -604.679    -176.859
  H       69.657    -601.419    -176.340
  H       69.428    -601.734    -179.147
  H       69.011    -604.110    -179.006
  H       67.127    -603.462    -176.659
  H       67.865    -605.690    -175.818
  H       76.486    -601.457    -177.867
  H       75.809    -603.062    -177.584
  H       67.001    -605.813    -177.365
  P       66.793    -604.262    -180.535
  C       64.825    -602.769    -181.236
  O       65.229    -604.077    -180.865
  O       67.283    -605.669    -180.466
  O       67.500    -603.415    -181.690
  H       67.640    -603.982    -182.481
  H       63.773    -602.763    -181.431
  H       65.353    -602.469    -182.117
  H       65.044    -602.089    -180.440

 6  7  8  9  10  11  12  13  14  15  25  28  32  33  34  35 0
 6-311+G(2d,p)
 ****
 36  39  40 0
 6-311+G(2d,p)
 ****
 1  2  3  4  5  16  17  18  19  20  21  22  23  24 0
 3-21G
 ****
 26  27  29  30  31  37  38  41  42  43  44  45  46  47 0
 3-21G
 ****
 48 0
 3-21G
 ****


