%nproc=1
%NoSave
%Mem=1900MB
#P OB98/GEN NMR

erre ene a

0 1
  C     -697.901     134.870    -524.924
  O     -696.846     135.710    -525.358
  P     -696.537     137.018    -524.482
  C     -696.563     138.519    -526.605
  O     -695.825     138.050    -525.478
  C     -696.180     139.956    -526.937
  O     -696.282     140.766    -525.752
  C     -694.760     140.139    -527.440
  O     -694.658     139.753    -528.794
  C     -694.533     141.619    -527.199
  O     -695.000     142.396    -528.318
  C     -695.387     141.888    -525.938
  N     -694.573     142.125    -524.755
  C     -693.753     143.275    -524.790
  O     -693.736     143.986    -525.801
  N     -692.958     143.539    -523.705
  C     -692.961     142.742    -522.685
  N     -692.152     143.061    -521.639
  C     -693.795     141.513    -522.608
  C     -694.563     141.282    -523.680
  O     -695.346     136.544    -523.522
  O     -697.708     137.547    -523.710
  H     -694.521     142.048    -529.104
  H     -695.325     137.055    -522.697
  H     -693.765     140.898    -521.733
  H     -695.205     140.403    -523.704
  H     -696.025     142.778    -526.093
  H     -693.474     141.852    -527.071
  H     -694.060     139.542    -526.819
  H     -696.906     140.351    -527.676
  H     -691.583     143.899    -521.716
  H     -697.635     138.468    -526.396
  H     -692.108     142.512    -520.791
  H     -696.348     137.856    -527.466
  P     -693.597     138.592    -529.170
  C     -692.514     140.032    -530.989
  O     -693.238     138.856    -530.702
  O     -694.522     137.284    -529.257
  O     -692.455     138.402    -528.230
  H     -693.976     136.494    -529.375
  H     -692.200     140.015    -532.039
  H     -691.628     140.111    -530.360
  H     -693.163     140.908    -530.826
  H     -697.997     134.042    -525.595
  H     -698.816     135.425    -524.910
  H     -697.687     134.509    -523.940

 3  4  5  6  7  8  9  10  11  12  13  21  23  27  28  29  30  32 0
 6-311+G(2d,p)
 ****
 34  35 0
 6-311+G(2d,p)
 ****
 1  2  14  15  16  17  18  19  20  22  24  25  26 0
 3-21G
 ****
 31  33  36  37  38  39  40  41  42  43  44  45  46 0
 3-21G
 ****


