%nproc=1
%NoSave
%Mem=1900MB
#P OB98/GEN NMR

erre ene a

0 1
  C     -203.333     315.020     370.975
  O     -203.640     313.647     370.874
  H     -202.783     315.184     371.904
  H     -204.257     315.605     371.002
  H     -202.710     315.345     370.140
  P     -204.153     313.068     369.473
  C     -206.176     311.712     370.339
  O     -204.870     311.664     369.774
  C     -206.192     311.056     371.729
  O     -205.508     311.929     372.670
  C     -207.621     310.864     372.243
  O     -207.725     309.759     373.141
  C     -207.873     312.153     373.014
  O     -208.902     312.021     373.998
  C     -206.491     312.434     373.595
  N     -206.140     316.144     377.081
  C     -206.609     314.846     377.222
  N     -207.043     314.501     378.458
  N     -206.671     313.987     376.243
  C     -206.276     314.500     375.048
  C     -205.817     315.764     374.776
  C     -205.720     316.700     375.880
  O     -205.330     317.864     375.803
  N     -205.518     315.913     373.444
  C     -205.807     314.743     372.908
  N     -206.245     313.837     373.848
  O     -202.806     312.615     368.737
  O     -204.944     314.019     368.630
  H     -209.019     312.897     374.410
  H     -202.941     312.573     367.776
  H     -206.091     316.753     377.873
  H     -205.695     314.492     371.863
  H     -206.353     311.898     374.543
  H     -208.198     312.914     372.306
  H     -207.192     315.192     379.185
  H     -208.345     310.740     371.439
  H     -207.666     313.689     378.510
  H     -205.623     310.115     371.705
  H     -206.843     311.183     369.658
  H     -206.520     312.747     370.399
  P     -208.942     308.736     372.949
  C     -208.960     307.887     375.464
  O     -208.881     307.602     374.078
  O     -208.572     307.952     371.607
  O     -210.291     309.379     372.866
  H     -209.233     308.142     370.912
  H     -208.897     306.975     376.020
  H     -209.890     308.371     375.676
  H     -208.152     308.530     375.742

 6  7  8  9  10  11  12  13  14  15  26  29  33  34 0
 6-311+G(2d,p)
 ****
 36  38  39  40  41 0
 6-311+G(2d,p)
 ****
 1  2  3  4  5  16  17  18  19  20  21  22  23  24  25 0
 3-21G
 ****
 27  28  30  31  32  35  37  42  43  44  45  46  47 0
 3-21G
 ****
 48  49 0
 3-21G
 ****


