%nproc=1
%NoSave
%Mem=1900MB
#P OB98/GEN NMR

erre ene a

0 1
  C      -10.816     -15.579     103.810
  O      -11.426     -16.856     103.777
  H      -10.116     -15.502     102.975
  H      -10.264     -15.456     104.746
  H      -11.569     -14.792     103.714
  P      -12.656     -17.084     104.778
  C      -11.285     -18.840     106.164
  O      -12.470     -18.540     105.438
  C      -11.288     -20.306     106.588
  O      -12.413     -20.589     107.444
  C      -11.455     -21.287     105.440
  O      -10.295     -21.393     104.643
  C      -11.783     -22.563     106.205
  O      -10.599     -23.233     106.653
  C      -12.599     -22.025     107.405
  N      -13.997     -22.401     107.320
  C      -14.297     -23.695     107.767
  O      -13.405     -24.418     108.213
  N      -15.587     -24.144     107.660
  C      -16.493     -23.382     107.130
  N      -17.747     -23.900     107.025
  C      -16.219     -22.013     106.646
  C      -14.961     -21.592     106.768
  O      -13.884     -17.290     103.776
  O      -12.858     -15.995     105.777
  H      -10.245     -22.698     107.394
  H      -13.709     -17.932     103.069
  H      -17.013     -21.414     106.223
  H      -14.670     -20.600     106.439
  H      -12.195     -22.417     108.349
  H      -12.335     -23.274     105.584
  H      -12.331     -21.017     104.835
  H      -10.366     -20.501     107.150
  H      -17.879     -24.860     107.319
  H      -11.197     -18.191     107.042
  H      -18.511     -23.430     106.559
  H      -10.433     -18.632     105.510
  P      -10.268     -20.847     103.138
  C      -10.093     -23.206     102.116
  O       -9.469     -21.935     102.264
  O       -9.778     -19.447     102.973
  O      -11.776     -21.068     102.643
  H      -12.083     -21.990     102.668
  H       -9.472     -23.841     101.519
  H      -11.042     -23.084     101.638
  H      -10.234     -23.649     103.080

 6  7  8  9  10  11  12  13  14  15  16  26  30  31  32  33  35 0
 6-311+G(2d,p)
 ****
 37  38 0
 6-311+G(2d,p)
 ****
 1  2  3  4  5  17  18  19  20  21  22  23  24  25 0
 3-21G
 ****
 27  28  29  34  36  39  40  41  42  43  44  45  46 0
 3-21G
 ****


