%nproc=1
%NoSave
%Mem=1900MB
#P OB98/GEN NMR

erre ene a

0 1
  C      -80.257     316.828    -233.965
  O      -81.461     316.083    -233.775
  P      -82.020     315.179    -234.973
  C      -82.633     313.188    -233.454
  O      -83.102     314.150    -234.387
  C      -82.861     313.663    -232.010
  O      -84.234     314.112    -231.852
  C      -82.602     312.563    -230.971
  O      -81.725     312.977    -229.925
  C      -83.997     312.144    -230.543
  O      -84.026     311.545    -229.257
  C      -84.807     313.434    -230.719
  N      -86.236     313.163    -230.901
  C      -87.042     313.291    -229.778
  O      -86.600     313.539    -228.657
  N      -88.378     313.061    -229.968
  C      -88.960     312.648    -231.130
  O      -90.156     312.410    -231.237
  C      -88.048     312.467    -232.270
  C      -86.750     312.729    -232.104
  O      -80.990     314.574    -235.866
  O      -82.942     316.210    -235.794
  H      -83.873     312.245    -228.585
  H      -82.828     316.020    -236.746
  H      -88.979     313.166    -229.165
  H      -88.470     312.119    -233.201
  H      -86.054     312.593    -232.921
  H      -84.707     314.083    -229.845
  H      -84.366     311.397    -231.255
  H      -82.089     311.704    -231.419
  H      -82.196     314.514    -231.840
  H      -81.566     313.024    -233.608
  H      -83.121     312.226    -233.647
  P      -80.289     312.333    -229.635
  C      -78.895     314.501    -229.894
  O      -79.340     313.473    -229.035
  O      -79.695     311.543    -230.751
  O      -80.569     311.384    -228.375
  H      -80.072     310.552    -228.483
  H      -78.000     314.956    -229.459
  H      -79.672     315.264    -229.981
  H      -78.648     314.113    -230.885
  H      -80.029     317.372    -233.072
  H      -80.386     317.513    -234.777
  H      -79.454     316.157    -234.188

 3  4  5  6  7  8  9  10  11  12  13  23  28  29  30  31  32 0
 6-311+G(2d,p)
 ****
 33  34 0
 6-311+G(2d,p)
 ****
 1  2  14  15  16  17  18  19  20  21  22  24  25  26  27 0
 3-21G
 ****
 35  36  37  38  39  40  41  42  43  44  45 0
 3-21G
 ****


