%nproc=1
%NoSave
%Mem=1900MB
#P OB98/GEN NMR

erre ene a

0 1
  C      232.064    -301.923    -309.436
  O      231.044    -302.757    -309.948
  H      231.605    -301.061    -308.943
  H      232.684    -301.566    -310.263
  H      232.682    -302.457    -308.713
  P      231.452    -304.254    -310.353
  C      228.951    -304.904    -310.583
  O      230.224    -304.851    -311.206
  C      227.907    -305.454    -311.559
  O      227.497    -304.380    -312.455
  C      228.406    -306.622    -312.419
  O      227.328    -307.554    -312.607
  C      228.696    -305.955    -313.754
  O      228.665    -306.876    -314.836
  C      227.589    -304.910    -313.790
  N      226.604    -303.483    -318.504
  C      226.027    -304.465    -317.726
  N      225.073    -305.224    -318.301
  N      226.351    -304.682    -316.476
  C      227.300    -303.832    -316.014
  C      227.959    -302.834    -316.685
  C      227.599    -302.608    -318.071
  O      228.095    -301.776    -318.821
  N      228.902    -302.235    -315.884
  C      228.830    -302.900    -314.741
  N      227.873    -303.876    -314.772
  O      231.359    -305.036    -308.959
  O      232.795    -304.403    -310.985
  H      229.369    -307.538    -314.696
  H      232.240    -305.068    -308.538
  H      226.325    -303.368    -319.465
  H      229.459    -302.723    -313.876
  H      226.610    -305.340    -314.058
  H      229.683    -305.485    -313.722
  H      224.737    -305.099    -319.245
  H      229.275    -307.141    -312.000
  H      224.603    -305.919    -317.729
  H      227.016    -305.747    -310.980
  H      228.659    -303.889    -310.283
  H      229.003    -305.530    -309.693
  P      227.351    -308.919    -311.766
  C      224.762    -308.688    -311.698
  O      225.881    -309.556    -311.783
  O      227.511    -308.405    -310.255
  O      228.460    -309.845    -312.148
  H      228.054    -309.040    -309.744
  H      223.861    -309.264    -311.722
  H      224.773    -308.009    -312.525
  H      224.808    -308.136    -310.783

 6  7  8  9  10  11  12  13  14  15  26  29  33  34 0
 6-311+G(2d,p)
 ****
 36  38  39  40  41 0
 6-311+G(2d,p)
 ****
 1  2  3  4  5  16  17  18  19  20  21  22  23  24  25 0
 3-21G
 ****
 27  28  30  31  32  35  37  42  43  44  45  46  47 0
 3-21G
 ****
 48  49 0
 3-21G
 ****


