%nproc=1
%NoSave
%Mem=1900MB
#P OB98/GEN NMR

erre ene a

0 1
  C     1402.715    -645.616    -382.036
  O     1403.779    -645.920    -382.922
  P     1405.090    -645.000    -382.988
  C     1407.615    -645.505    -383.308
  O     1406.285    -645.999    -383.422
  C     1408.604    -646.661    -383.412
  O     1408.451    -647.520    -382.261
  C     1408.406    -647.559    -384.639
  O     1408.910    -646.943    -385.801
  C     1409.126    -648.825    -384.182
  O     1410.549    -648.671    -384.354
  C     1408.793    -648.885    -382.658
  N     1407.710    -649.804    -382.375
  C     1408.054    -651.154    -382.222
  O     1409.252    -651.521    -382.338
  N     1407.093    -652.068    -381.919
  C     1405.857    -651.680    -381.763
  N     1404.936    -652.611    -381.389
  C     1405.434    -650.275    -381.966
  C     1406.396    -649.402    -382.246
  O     1405.366    -644.213    -381.726
  O     1404.906    -644.095    -384.289
  H     1410.979    -649.381    -383.826
  H     1404.426    -643.253    -384.113
  H     1404.385    -649.987    -381.861
  H     1406.160    -648.354    -382.390
  H     1409.688    -649.149    -382.084
  H     1408.834    -649.729    -384.717
  H     1407.345    -647.791    -384.773
  H     1409.626    -646.256    -383.395
  H     1405.317    -653.517    -381.089
  H     1407.742    -645.017    -382.345
  H     1404.049    -652.331    -380.996
  H     1407.781    -644.774    -384.111
  P     1408.691    -647.711    -387.192
  C     1408.450    -646.979    -389.676
  O     1408.581    -646.581    -388.321
  O     1407.210    -648.312    -387.061
  O     1409.713    -648.786    -387.463
  H     1407.240    -649.255    -386.826
  H     1408.150    -646.127    -390.259
  H     1407.696    -647.767    -389.786
  H     1409.429    -647.338    -390.043
  H     1401.940    -646.346    -382.145
  H     1402.326    -644.646    -382.266
  H     1403.076    -645.626    -381.029

 3  4  5  6  7  8  9  10  11  12  13  23  27  28  29  30  32 0
 6-311+G(2d,p)
 ****
 34  35 0
 6-311+G(2d,p)
 ****
 1  2  14  15  16  17  18  19  20  21  22  24  25  26 0
 3-21G
 ****
 31  33  36  37  38  39  40  41  42  43  44  45  46 0
 3-21G
 ****


