%nproc=1
%NoSave
%Mem=1900MB
#P OB98/GEN NMR

erre ene a

0 1
  C       35.900     -45.964      18.240
  O       34.678     -46.454      18.753
  H       36.644     -46.764      18.279
  H       36.256     -45.127      18.850
  H       35.787     -45.644      17.200
  P       33.369     -45.537      18.639
  C       32.574     -43.396      19.845
  O       33.369     -44.572      19.918
  C       31.863     -43.138      21.180
  O       30.842     -44.168      21.370
  C       32.790     -43.187      22.412
  O       32.237     -42.296      23.391
  C       32.629     -44.639      22.833
  O       33.163     -44.897      24.106
  C       31.111     -44.787      22.648
  N       30.605     -46.154      22.674
  C       30.386     -46.739      23.917
  O       30.585     -46.182      24.999
  N       29.921     -48.029      23.895
  C       29.643     -48.765      22.779
  O       29.198     -49.905      22.819
  C       29.903     -48.095      21.495
  C       30.358     -46.838      21.499
  O       32.088     -46.263      18.393
  O       33.716     -44.533      17.439
  H       33.262     -44.826      16.625
  H       32.688     -44.350      24.768
  H       29.752     -48.467      24.787
  H       29.704     -48.655      20.589
  H       30.549     -46.316      20.567
  H       30.584     -44.194      23.406
  H       33.170     -45.292      22.142
  H       33.819     -42.893      22.189
  H       31.336     -42.179      21.119
  H       31.831     -43.536      19.051
  H       33.214     -42.546      19.590
  P       32.680     -40.759      23.535
  C       34.691     -39.438      24.499
  O       34.116     -40.718      24.258
  O       31.652     -39.890      24.190
  O       32.987     -40.263      22.043
  H       32.854     -39.299      21.985
  H       35.638     -39.558      24.982
  H       34.040     -38.867      25.128
  H       34.827     -38.927      23.569

 6  7  8  9  10  11  12  13  14  15  16  27  31  32  33  34  35 0
 6-311+G(2d,p)
 ****
 36  37 0
 6-311+G(2d,p)
 ****
 1  2  3  4  5  17  18  19  20  21  22  23  24  25 0
 3-21G
 ****
 26  28  29  30  38  39  40  41  42  43  44  45 0
 3-21G
 ****


