%nproc=1
%NoSave
%Mem=1900MB
#P OB98/GEN NMR

erre ene a

0 1
  C     1019.298    -403.256    -662.675
  O     1020.358    -402.385    -663.017
  H     1018.716    -402.799    -661.872
  H     1019.705    -404.206    -662.318
  H     1018.644    -403.426    -663.534
  P     1021.142    -402.698    -664.383
  C     1021.326    -400.473    -665.707
  O     1020.581    -401.656    -665.471
  C     1021.507    -400.246    -667.206
  O     1022.307    -401.310    -667.779
  C     1020.206    -400.213    -668.001
  O     1019.603    -398.926    -667.958
  C     1020.718    -400.532    -669.396
  O     1021.338    -399.354    -669.968
  C     1021.785    -401.597    -669.111
  N     1020.117    -405.360    -672.076
  C     1020.467    -404.066    -672.397
  N     1020.349    -403.717    -673.704
  N     1020.896    -403.183    -671.532
  C     1020.937    -403.663    -670.268
  C     1020.609    -404.917    -669.814
  C     1020.158    -405.886    -670.786
  O     1019.846    -407.054    -670.550
  N     1020.784    -405.032    -668.464
  C     1021.196    -403.836    -668.089
  N     1021.298    -402.966    -669.142
  O     1020.511    -404.100    -664.835
  O     1022.626    -402.779    -664.262
  H     1020.635    -398.690    -670.081
  H     1021.146    -404.810    -664.622
  H     1019.787    -405.997    -672.778
  H     1021.435    -403.552    -667.075
  H     1022.627    -401.536    -669.810
  H     1019.920    -400.832    -670.079
  H     1020.005    -404.341    -674.417
  H     1019.511    -401.000    -667.674
  H     1020.603    -402.775    -673.962
  H     1022.068    -399.316    -667.342
  H     1022.310    -400.563    -665.232
  H     1020.790    -399.624    -665.266
  P     1018.012    -398.837    -667.760
  C     1018.483    -398.317    -665.262
  O     1017.724    -399.081    -666.195
  O     1017.497    -400.190    -668.443
  O     1017.364    -397.640    -668.358
  H     1017.002    -399.982    -669.256
  H     1018.191    -398.578    -664.266
  H     1018.303    -397.275    -665.425
  H     1019.524    -398.524    -665.395

 6  7  8  9  10  11  12  13  14  15  26  29  33  34 0
 6-311+G(2d,p)
 ****
 36  38  39  40  41 0
 6-311+G(2d,p)
 ****
 1  2  3  4  5  16  17  18  19  20  21  22  23  24  25 0
 3-21G
 ****
 27  28  30  31  32  35  37  42  43  44  45  46  47 0
 3-21G
 ****
 48  49 0
 3-21G
 ****


