%nproc=1
%NoSave
%Mem=1900MB
#P OB98/GEN NMR

erre ene a

0 1
  C      378.967     421.453     139.402
  O      378.153     420.636     140.217
  H      378.509     421.525     138.412
  H      379.966     421.019     139.291
  H      379.041     422.459     139.825
  P      378.672     420.277     141.695
  C      378.013     417.809     141.257
  O      377.853     418.952     142.087
  C      376.663     417.127     141.027
  O      376.156     416.557     142.252
  C      375.553     418.053     140.545
  O      375.685     418.433     139.185
  C      374.345     417.169     140.788
  O      374.271     416.163     139.760
  C      374.705     416.536     142.155
  N      374.106     417.243     143.284
  C      373.905     416.502     144.459
  O      374.219     415.313     144.509
  N      373.308     417.115     145.535
  C      372.933     418.352     145.444
  N      372.305     418.900     146.528
  C      373.143     419.176     144.240
  C      373.726     418.566     143.207
  O      378.620     421.385     142.701
  O      380.143     419.690     141.467
  H      375.120     415.684     139.770
  H      380.514     419.464     142.357
  H      372.805     420.203     144.215
  H      373.896     419.097     142.277
  H      374.395     415.484     142.192
  H      373.394     417.711     140.775
  H      375.477     418.939     141.187
  H      376.829     416.299     140.326
  H      372.143     418.293     147.318
  H      378.717     417.127     141.747
  H      371.746     419.746     146.441
  H      378.419     418.102     140.285
  P      374.943     419.779     138.702
  C      373.611     418.199     137.110
  O      374.269     419.442     137.283
  O      376.162     420.743     138.326
  O      374.009     420.396     139.698
  H      376.406     421.317     139.080
  H      373.222     418.137     136.115
  H      372.808     418.120     137.813
  H      374.306     417.402     137.271

 6  7  8  9  10  11  12  13  14  15  16  26  30  31  32  33  35 0
 6-311+G(2d,p)
 ****
 37  38 0
 6-311+G(2d,p)
 ****
 1  2  3  4  5  17  18  19  20  21  22  23  24  25 0
 3-21G
 ****
 27  28  29  34  36  39  40  41  42  43  44  45  46 0
 3-21G
 ****


