%nproc=1
%NoSave
%Mem=1900MB
#P OB98/GEN NMR

erre ene a

0 1
  C     -147.531     188.449    -217.610
  O     -148.106     187.244    -218.074
  H     -147.937     188.675    -216.621
  H     -147.771     189.276    -218.282
  H     -146.445     188.342    -217.524
  P     -147.731     186.734    -219.543
  C     -150.108     186.929    -220.552
  O     -149.062     186.058    -220.136
  C     -150.805     186.377    -221.796
  O     -149.835     186.097    -222.825
  C     -151.553     185.067    -221.561
  O     -152.760     185.302    -220.867
  C     -151.702     184.574    -222.986
  O     -152.770     185.259    -223.661
  C     -150.333     184.972    -223.591
  N     -149.361     183.882    -223.604
  C     -149.426     183.002    -224.688
  O     -150.278     183.162    -225.565
  N     -148.537     181.958    -224.743
  C     -147.630     181.822    -223.818
  N     -146.777     180.772    -223.936
  C     -147.504     182.748    -222.678
  C     -148.399     183.732    -222.623
  O     -146.502     185.884    -219.656
  O     -147.597     188.082    -220.396
  H     -152.775     184.914    -224.576
  H     -146.669     188.378    -220.422
  H     -146.733     182.604    -221.936
  H     -148.377     184.460    -221.812
  H     -150.457     185.322    -224.626
  H     -151.926     183.506    -223.040
  H     -150.918     184.360    -221.013
  H     -151.481     187.153    -222.177
  H     -146.892     180.177    -224.745
  H     -149.655     187.899    -220.776
  H     -145.945     180.665    -223.373
  H     -150.837     187.070    -219.746
  P     -153.158     184.464    -219.556
  C     -155.196     183.374    -220.683
  O     -154.743     184.240    -219.649
  O     -152.678     185.042    -218.270
  O     -152.580     183.005    -219.851
  H     -151.598     182.989    -219.712
  H     -156.263     183.302    -220.646
  H     -154.768     182.403    -220.548
  H     -154.897     183.766    -221.633

 6  7  8  9  10  11  12  13  14  15  16  26  30  31  32  33  35 0
 6-311+G(2d,p)
 ****
 37  38 0
 6-311+G(2d,p)
 ****
 1  2  3  4  5  17  18  19  20  21  22  23  24  25 0
 3-21G
 ****
 27  28  29  34  36  39  40  41  42  43  44  45  46 0
 3-21G
 ****


