%nproc=1
%NoSave
%Mem=1900MB
#P OB98/GEN NMR

erre ene a

0 1
  C     -119.444      57.828     486.410
  O     -119.296      57.963     487.808
  H     -120.320      58.401     486.094
  H     -119.604      56.775     486.155
  H     -118.566      58.209     485.888
  P     -117.948      57.363     488.450
  C     -118.442      55.451     490.140
  O     -118.247      55.818     488.783
  C     -119.834      55.868     490.612
  O     -120.800      55.701     489.536
  C     -120.369      55.062     491.795
  O     -119.865      55.553     493.034
  C     -121.862      55.322     491.661
  O     -122.171      56.641     492.156
  C     -122.055      55.264     490.137
  N     -125.306      51.380     490.469
  C     -125.272      52.579     491.168
  N     -126.236      52.754     492.101
  N     -124.377      53.503     490.979
  C     -123.463      53.187     490.029
  C     -123.393      52.037     489.270
  C     -124.406      51.019     489.476
  O     -124.488      49.955     488.864
  N     -122.338      52.078     488.395
  C     -121.749      53.235     488.638
  N     -122.395      53.943     489.632
  O     -117.894      58.050     489.902
  O     -116.701      57.627     487.681
  H     -123.140      56.730     492.148
  H     -116.958      58.226     490.128
  H     -126.021      50.700     490.655
  H     -120.869      53.609     488.135
  H     -122.837      55.953     489.794
  H     -122.465      54.615     492.232
  H     -126.936      52.058     492.326
  H     -120.171      53.986     491.673
  H     -126.253      53.637     492.605
  H     -119.802      56.943     490.854
  H     -117.685      55.953     490.762
  H     -118.320      54.362     490.237
  P     -119.797      54.523     494.268
  C     -121.524      54.969     496.162
  O     -121.299      54.454     494.851
  O     -118.997      55.346     495.382
  O     -119.158      53.207     493.961
  H     -118.583      54.728     496.014
  H     -122.557      54.858     496.416
  H     -121.259      56.005     496.188
  H     -120.924      54.430     496.865

 6  7  8  9  10  11  12  13  14  15  26  29  33  34 0
 6-311+G(2d,p)
 ****
 36  38  39  40  41 0
 6-311+G(2d,p)
 ****
 1  2  3  4  5  16  17  18  19  20  21  22  23  24  25 0
 3-21G
 ****
 27  28  30  31  32  35  37  42  43  44  45  46  47 0
 3-21G
 ****
 48  49 0
 3-21G
 ****


