%nproc=1
%NoSave
%Mem=1900MB
#P OB98/GEN NMR

erre ene a

0 1
  C     -143.491     -70.404     -77.420
  O     -144.172     -69.766     -78.487
  P     -143.299     -69.105     -79.660
  C     -142.867     -67.019     -78.173
  O     -142.304     -68.034     -78.991
  C     -142.824     -65.661     -78.879
  O     -143.681     -64.719     -78.177
  C     -141.419     -65.045     -78.937
  O     -141.278     -64.303     -80.162
  C     -141.430     -64.043     -77.798
  O     -140.459     -63.017     -77.996
  C     -142.878     -63.566     -77.844
  N     -142.848     -59.388     -74.997
  C     -142.544     -59.540     -76.335
  N     -142.091     -58.441     -76.976
  N     -142.680     -60.661     -76.987
  C     -143.142     -61.679     -76.214
  C     -143.493     -61.648     -74.881
  C     -143.323     -60.397     -74.168
  O     -143.548     -60.206     -72.977
  N     -143.950     -62.867     -74.452
  C     -143.836     -63.651     -75.511
  N     -143.318     -62.987     -76.594
  O     -144.370     -68.191     -80.428
  O     -142.660     -70.085     -80.586
  H     -140.504     -62.428     -77.216
  H     -144.614     -68.616     -81.275
  H     -142.720     -58.502     -74.534
  H     -144.096     -64.703     -75.542
  H     -143.029     -62.817     -78.636
  H     -141.198     -64.552     -76.853
  H     -141.896     -57.560     -76.517
  H     -140.602     -65.771     -78.856
  H     -141.819     -58.533     -77.949
  H     -143.236     -65.776     -79.889
  H     -142.303     -66.955     -77.242
  H     -143.904     -67.282     -77.926
  P     -139.822     -64.342     -80.840
  C     -139.634     -61.747     -80.814
  O     -139.094     -62.986     -80.403
  O     -140.136     -64.120     -82.396
  O     -139.064     -65.607     -80.589
  H     -139.432     -64.509     -82.946
  H     -139.942     -61.185     -79.924
  H     -140.493     -61.866     -81.477
  H     -138.859     -61.181     -81.341
  H     -144.204     -70.792     -76.723
  H     -142.859     -69.696     -76.926
  H     -142.896     -71.206     -77.805

 3  4  5  6  7  8  9  10  11  12  23  26  30  31 0
 6-311+G(2d,p)
 ****
 33  35  36  37  38 0
 6-311+G(2d,p)
 ****
 1  2  13  14  15  16  17  18  19  20  21  22  24  25 0
 3-21G
 ****
 27  28  29  32  34  39  40  41  42  43  44  45  46  47  48  49 0
 3-21G
 ****


