%nproc=1
%NoSave
%Mem=1900MB
#P OB98/GEN NMR

erre ene a

0 1
  C      430.943      58.036     491.013
  O      430.963      56.928     490.128
  P      429.599      56.540     489.378
  C      428.171      55.738     491.419
  O      428.897      55.392     490.246
  C      426.980      54.793     491.587
  O      426.065      54.926     490.480
  C      427.365      53.321     491.616
  O      427.883      52.940     492.882
  C      426.047      52.647     491.276
  O      425.224      52.507     492.446
  C      425.432      53.651     490.280
  N      425.525      53.203     488.899
  C      424.677      52.167     488.527
  O      423.894      51.632     489.313
  N      424.771      51.749     487.230
  C      425.654      52.204     486.299
  O      425.736      51.746     485.169
  C      426.556      53.278     486.752
  C      426.450      53.720     488.008
  O      430.080      55.789     488.058
  O      428.707      57.699     489.072
  H      425.718      51.940     493.073
  H      429.478      55.991     487.316
  H      424.142      51.012     486.937
  H      427.276      53.666     486.038
  H      427.117      54.505     488.371
  H      424.369      53.805     490.513
  H      426.194      51.641     490.864
  H      428.102      53.107     490.825
  H      426.451      55.065     492.509
  H      427.817      56.768     491.332
  H      428.838      55.673     492.282
  P      429.465      52.658     492.969
  C      429.759      50.687     491.277
  O      429.626      51.100     492.621
  O      429.700      52.762     494.559
  O      430.279      53.619     492.164
  H      428.920      52.451     495.065
  H      430.325      51.418     490.684
  H      428.771      50.566     490.844
  H      430.282      49.736     491.253
  H      431.917      58.173     491.435
  H      430.237      57.854     491.796
  H      430.661      58.917     490.475

 3  4  5  6  7  8  9  10  11  12  13  23  28  29  30  31  32 0
 6-311+G(2d,p)
 ****
 33  34 0
 6-311+G(2d,p)
 ****
 1  2  14  15  16  17  18  19  20  21  22  24  25  26 0
 3-21G
 ****
 27  35  36  37  38  39  40  41  42  43  44  45 0
 3-21G
 ****


