%nproc=1
%NoSave
%Mem=1900MB
#P OB98/GEN NMR

erre ene a

0 1
  C     -242.345    -655.816    -260.598
  O     -243.284    -654.765    -260.709
  P     -244.843    -655.085    -260.931
  C     -245.306    -653.454    -258.993
  O     -245.647    -653.838    -260.316
  C     -245.423    -651.941    -258.833
  O     -244.294    -651.259    -259.444
  C     -246.636    -651.335    -259.522
  O     -247.909    -651.679    -259.018
  C     -246.272    -649.857    -259.531
  O     -246.550    -649.242    -258.272
  C     -244.738    -649.923    -259.772
  N     -244.387    -649.556    -261.147
  C     -243.501    -648.487    -261.279
  O     -243.036    -647.862    -260.320
  N     -243.194    -648.114    -262.563
  C     -243.709    -648.681    -263.694
  O     -243.419    -648.276    -264.818
  C     -244.647    -649.798    -263.492
  C     -244.934    -650.179    -262.243
  O     -245.291    -656.415    -260.428
  O     -245.039    -654.881    -262.508
  H     -246.510    -648.275    -258.402
  H     -244.828    -653.987    -262.830
  H     -242.571    -647.336    -262.678
  H     -245.057    -650.268    -264.374
  H     -245.629    -650.995    -262.069
  H     -244.216    -649.238    -259.086
  H     -246.824    -649.302    -260.297
  H     -246.632    -651.668    -260.573
  H     -245.398    -651.699    -257.766
  H     -244.270    -653.756    -258.790
  H     -245.954    -653.981    -258.279
  P     -248.914    -652.673    -259.772
  C     -249.979    -653.657    -257.622
  O     -250.183    -652.936    -258.814
  O     -248.308    -653.861    -260.449
  O     -249.541    -651.707    -260.894
  H     -249.773    -652.225    -261.685
  H     -250.944    -653.782    -257.116
  H     -249.310    -653.112    -256.951
  H     -249.572    -654.649    -257.837
  H     -241.367    -655.407    -260.455
  H     -242.359    -656.403    -261.493
  H     -242.599    -656.434    -259.762

 3  4  5  6  7  8  9  10  11  12  13  23  28  29  30  31  32 0
 6-311+G(2d,p)
 ****
 33  34 0
 6-311+G(2d,p)
 ****
 1  2  14  15  16  17  18  19  20  21  22  24  25  26  27 0
 3-21G
 ****
 35  36  37  38  39  40  41  42  43  44  45 0
 3-21G
 ****


