%nproc=1
%NoSave
%Mem=1900MB
#P OB98/GEN NMR

erre ene a

0 1
  C     -895.210     373.578    -732.031
  O     -894.180     373.391    -731.051
  P     -894.450     372.384    -729.841
  C     -895.800     374.110    -728.352
  O     -895.720     372.860    -728.995
  C     -897.260     374.387    -727.934
  O     -897.670     373.419    -726.946
  C     -897.470     375.771    -727.345
  O     -897.730     376.742    -728.326
  C     -898.650     375.533    -726.410
  O     -899.880     375.488    -727.170
  C     -898.320     374.128    -725.837
  N     -897.430     374.051    -724.662
  C     -897.810     373.259    -723.559
  O     -898.850     372.603    -723.512
  N     -896.940     373.230    -722.518
  C     -895.670     373.753    -722.497
  O     -894.900     373.630    -721.539
  C     -895.260     374.440    -723.735
  C     -896.140     374.569    -724.723
  O     -893.220     372.648    -728.835
  O     -894.540     370.938    -730.243
  H     -900.000     376.371    -727.572
  H     -892.670     371.852    -728.776
  H     -897.210     372.716    -721.692
  H     -894.250     374.835    -723.778
  H     -895.860     375.103    -725.645
  H     -899.240     373.581    -725.585
  H     -898.760     376.348    -725.692
  H     -896.610     376.056    -726.732
  H     -897.900     374.257    -728.832
  H     -895.440     374.907    -729.005
  H     -895.150     374.111    -727.462
  P     -896.570     377.821    -728.702
  C     -897.610     379.665    -727.275
  O     -896.510     378.815    -727.440
  O     -896.680     378.466    -730.042
  O     -895.220     376.974    -728.526
  H     -894.910     376.637    -729.421
  H     -897.530     380.205    -726.309
  H     -898.560     379.106    -727.275
  H     -897.640     380.435    -728.079
  H     -894.877     374.277    -732.769
  H     -896.091     373.955    -731.555
  H     -895.430     372.642    -732.500

 3  4  5  6  7  8  9  10  11  12  13  23  28  29  30  31  32 0
 6-311+G(2d,p)
 ****
 33  34 0
 6-311+G(2d,p)
 ****
 1  2  14  15  16  17  18  19  20  21  22  24  25  26  27 0
 3-21G
 ****
 35  36  37  38  39  40  41  42  43  44  45 0
 3-21G
 ****


