%nproc=1
%NoSave
%Mem=1900MB
#P OB98/GEN NMR

erre ene a

0 1
  C      201.585      26.055     140.619
  O      201.559      25.328     139.408
  H      202.610      26.065     141.001
  H      200.938      25.579     141.363
  H      201.261      27.083     140.449
  P      200.126      25.141     138.706
  C      199.364      23.266     140.338
  O      199.133      24.574     139.832
  C      198.188      22.836     141.205
  O      198.358      21.460     141.619
  C      198.045      23.630     142.497
  O      197.448      24.899     142.282
  C      197.169      22.695     143.316
  O      195.776      22.865     143.001
  C      197.669      21.300     142.878
  N      198.517      20.677     143.891
  C      197.861      20.232     145.033
  O      196.646      20.349     145.208
  N      198.656      19.681     146.003
  C      200.020      19.569     145.955
  O      200.681      19.129     146.891
  C      200.655      20.046     144.713
  C      199.889      20.577     143.758
  O      200.361      23.890     137.736
  O      199.623      26.337     137.970
  H      200.467      24.195     136.816
  H      195.678      22.603     142.064
  H      198.204      19.361     146.845
  H      201.733      19.962     144.640
  H      200.339      20.954     142.842
  H      196.819      20.633     142.689
  H      197.277      22.880     144.386
  H      199.019      23.728     142.993
  H      197.268      22.905     140.606
  H      200.278      23.265     140.943
  H      199.501      22.579     139.495
  P      197.840      26.106     143.263
  C      195.872      25.773     144.974
  O      197.265      25.728     144.714
  O      196.865      27.261     142.740
  O      199.292      26.448     143.240
  H      195.998      26.922     142.458
  H      195.689      25.489     145.989
  H      195.365      25.097     144.318
  H      195.511      26.767     144.811

 6  7  8  9  10  11  12  13  14  15  16  27  31  32  33  34  35 0
 6-311+G(2d,p)
 ****
 36  37 0
 6-311+G(2d,p)
 ****
 1  2  3  4  5  17  18  19  20  21  22  23  24  25 0
 3-21G
 ****
 26  28  29  30  38  39  40  41  42  43  44  45 0
 3-21G
 ****


