%nproc=1
%NoSave
%Mem=1900MB
#P OB98/GEN NMR

erre ene a

0 1
  C      225.285      60.257    -176.301
  O      226.540      59.594    -176.389
  P      226.934      58.603    -175.188
  C      228.673      56.691    -174.924
  O      227.986      57.565    -175.815
  C      230.016      56.273    -175.512
  O      229.820      55.723    -176.822
  C      231.007      57.413    -175.692
  O      231.675      57.731    -174.478
  C      231.971      56.804    -176.702
  O      232.915      55.955    -176.021
  C      231.035      55.960    -177.585
  N      231.243      55.644    -182.636
  C      231.710      54.771    -181.670
  N      232.294      53.638    -182.121
  N      231.619      54.989    -180.387
  C      230.975      56.142    -180.085
  C      230.470      57.088    -180.948
  C      230.623      56.861    -182.367
  O      230.285      57.626    -183.264
  N      229.874      58.120    -180.265
  C      229.981      57.780    -178.995
  N      230.674      56.603    -178.832
  O      225.615      57.719    -174.994
  O      227.347      59.276    -173.922
  H      233.393      56.519    -175.380
  H      225.575      57.377    -174.081
  H      231.322      55.419    -183.608
  H      229.583      58.351    -178.168
  H      231.473      54.983    -177.809
  H      232.550      57.554    -177.247
  H      232.278      53.356    -183.089
  H      230.521      58.295    -176.131
  H      232.616      52.969    -181.427
  H      230.437      55.489    -174.870
  H      228.065      55.794    -174.755
  H      228.814      57.203    -173.963
  P      232.884      58.789    -174.581
  C      233.593      60.818    -173.122
  O      232.806      59.647    -173.233
  O      232.392      59.801    -175.714
  O      234.208      58.176    -174.899
  H      233.159      60.221    -176.150
  H      233.665      61.344    -174.076
  H      234.596      60.554    -172.778
  H      233.135      61.486    -172.389
  H      225.150      60.881    -177.160
  H      225.260      60.858    -175.416
  H      224.500      59.531    -176.261

 3  4  5  6  7  8  9  10  11  12  23  26  30  31  33  0
 6-311+G(2d,p)
 ****
 35  36  37  38 0
 6-311+G(2d,p)
 ****
 1  2  13  14  15  16  17  18  19  20  21  22  24  25  27  28  29 0
 3-21G
 ****
 32  34  39  40  41  42  43  44  45  46  47  48  49 0
 3-21G
 ****


