%nproc=1
%NoSave
%Mem=1900MB
#P OB98/GEN NMR

erre ene a

0 1
  C      447.582     124.409     114.533
  O      446.808     125.544     114.932
  P      445.253     125.272     115.223
  C      445.145     124.636     117.739
  O      444.962     125.648     116.757
  C      443.969     124.617     118.715
  O      444.073     123.548     119.677
  C      443.833     125.898     119.528
  O      443.206     126.902     118.747
  C      442.982     125.431     120.702
  O      441.579     125.450     120.371
  C      443.466     123.989     120.920
  N      443.961     123.341     125.924
  C      442.837     123.627     125.174
  N      441.675     123.736     125.854
  N      442.852     123.795     123.879
  C      444.083     123.658     123.330
  C      445.266     123.347     123.963
  C      445.235     123.168     125.401
  O      446.199     122.889     126.104
  N      446.299     123.233     123.068
  C      445.762     123.599     121.918
  N      444.407     123.805     122.010
  O      445.145     123.676     115.187
  O      444.342     125.907     114.223
  H      441.066     125.134     121.139
  H      444.651     123.393     114.393
  H      443.897     123.231     126.923
  H      446.302     123.702     120.988
  H      442.625     123.311     121.124
  H      443.100     126.082     121.571
  H      441.590     123.617     126.851
  H      444.817     126.224     119.882
  H      440.837     123.937     125.322
  H      443.054     124.453     118.127
  H      446.074     124.808     118.283
  H      445.250     123.672     117.232
  P      443.877     128.359     118.724
  C      445.347     128.546     116.591
  O      444.086     128.768     117.192
  O      445.365     128.081     119.253
  O      443.183     129.374     119.572
  H      445.613     128.770     119.900
  H      445.204     128.365     115.523
  H      445.859     127.684     117.032
  H      445.969     129.437     116.721
  H      448.596     124.709     114.368
  H      447.179     124.002     113.629
  H      447.551     123.667     115.303

 3  4  5  6  7  8  9  10  11  12  23  26  30  31 0
 6-311+G(2d,p)
 ****
 33  35  36  37  38 0
 6-311+G(2d,p)
 ****
 1  2  13  14  15  16  17  18  19  20  21  22  24  25 0
 3-21G
 ****
 27  28  29  32  34  39  40  41  42  43  44  45  46  47  48  49 0
 3-21G
 ****


