%nproc=1
%NoSave
%Mem=1900MB
#P OB98/GEN NMR

erre ene a

0 1
  C      411.103     -59.602    -275.031
  O      412.466     -59.736    -275.381
  H      410.508     -59.516    -275.947
  H      410.951     -58.704    -274.426
  H      410.769     -60.484    -274.476
  P      413.524     -59.775    -274.176
  C      414.606     -57.422    -273.913
  O      413.553     -58.307    -273.534
  C      415.207     -56.780    -272.666
  O      414.180     -56.053    -271.945
  C      415.775     -57.781    -271.662
  O      417.057     -58.260    -272.032
  C      415.818     -56.926    -270.404
  O      417.012     -56.137    -270.338
  C      414.565     -56.041    -270.554
  N      413.478     -56.481    -269.681
  C      413.085     -55.567    -268.705
  O      413.599     -54.458    -268.567
  N      412.099     -55.995    -267.857
  C      411.516     -57.226    -267.860
  O      410.676     -57.567    -267.035
  C      411.987     -58.159    -268.900
  C      412.938     -57.750    -269.753
  O      414.933     -59.890    -274.932
  O      413.324     -60.883    -273.199
  H      415.284     -60.794    -274.835
  H      417.067     -55.659    -271.190
  H      411.791     -55.344    -267.146
  H      411.544     -59.147    -268.929
  H      413.304     -58.414    -270.521
  H      414.805     -54.998    -270.304
  H      415.793     -57.547    -269.512
  H      415.067     -58.606    -271.512
  H      415.982     -56.067    -272.978
  H      414.205     -56.635    -274.563
  H      415.361     -57.984    -274.467
  P      417.420     -59.780    -271.658
  C      419.298     -59.321    -269.869
  O      417.965     -59.739    -270.155
  O      418.723     -60.000    -272.566
  O      416.295     -60.732    -271.916
  H      419.193     -59.162    -272.736
  H      419.466     -59.364    -268.813
  H      419.438     -58.317    -270.212
  H      419.989     -59.968    -270.367

 6  7  8  9  10  11  12  13  14  15  16  27  31  32  33  34  35 0
 6-311+G(2d,p)
 ****
 36  37 0
 6-311+G(2d,p)
 ****
 1  2  3  4  5  17  18  19  20  21  22  23  24  25 0
 3-21G
 ****
 26  28  29  30  38  39  40  41  42  43  44  45 0
 3-21G
 ****


