%nproc=1
%NoSave
%Mem=1900MB
#P OB98/GEN NMR

erre ene a

0 1
  C     -423.200      38.517     -17.294
  O     -422.147      37.618     -17.571
  P     -420.607      37.970     -17.328
  C     -420.125      38.676     -19.781
  O     -420.164      39.069     -18.414
  C     -420.046      39.870     -20.746
  O     -421.178      40.736     -20.537
  C     -418.793      40.705     -20.450
  O     -417.543      40.330     -20.987
  C     -419.210      42.147     -20.727
  O     -418.796      42.595     -22.022
  C     -420.738      42.099     -20.636
  N     -421.866      46.691     -18.800
  C     -421.592      46.320     -20.099
  N     -421.408      47.331     -20.980
  N     -421.480      45.077     -20.494
  C     -421.592      44.182     -19.480
  C     -421.875      44.428     -18.153
  C     -422.037      45.802     -17.749
  O     -422.199      46.180     -16.590
  N     -421.841      43.283     -17.402
  C     -421.493      42.343     -18.259
  N     -421.290      42.850     -19.527
  O     -419.689      36.820     -17.056
  O     -420.691      38.846     -15.975
  H     -417.818      42.602     -22.038
  H     -419.889      38.661     -15.453
  H     -421.862      47.668     -18.544
  H     -421.343      41.299     -18.014
  H     -421.189      42.506     -21.554
  H     -418.746      42.829     -20.002
  H     -421.346      48.294     -20.686
  H     -418.641      40.665     -19.362
  H     -421.042      47.100     -21.897
  H     -420.113      39.536     -21.787
  H     -421.024      38.081     -19.979
  H     -419.264      38.024     -19.949
  P     -416.137      40.354     -20.221
  C     -415.418      42.464     -21.479
  O     -415.589      41.859     -20.208
  O     -415.130      39.618     -21.229
  O     -416.132      39.671     -18.893
  H     -414.362      39.271     -20.733
  H     -414.775      43.338     -21.370
  H     -416.392      42.782     -21.871
  H     -414.958      41.770     -22.186
  H     -424.135      38.057     -17.537
  H     -423.076      39.404     -17.880
  H     -423.187      38.772     -16.255

 3  4  5  6  7  8  9  10  11  12  23  26  30  31 0
 6-311+G(2d,p)
 ****
 33  35  36  37  38 0
 6-311+G(2d,p)
 ****
 1  2  13  14  15  16  17  18  19  20  21  22  24  25 0
 3-21G
 ****
 27  28  29  32  34  39  40  41  42  43  44  45  46  47  48  49 0
 3-21G
 ****


