%nproc=1
%NoSave
%Mem=1900MB
#P OB98/GEN NMR

erre ene a

0 1
  C        1.409       7.456      20.554
  O        1.070       7.602      19.185
  P       -0.365       7.139      18.645
  C       -1.350       4.863      17.965
  O       -0.417       5.541      18.797
  C       -1.682       3.487      18.537
  O       -1.998       3.631      19.942
  C       -2.878       2.823      17.864
  O       -2.646       1.414      17.796
  C       -4.032       3.070      18.820
  O       -5.048       2.063      18.681
  C       -3.309       3.079      20.170
  N       -6.325       3.045      24.323
  C       -5.796       2.042      23.590
  N       -5.025       2.123      22.484
  C       -4.766       3.405      22.183
  C       -5.232       4.534      22.840
  C       -6.053       4.319      23.959
  N       -6.582       5.345      24.713
  N       -4.779       5.682      22.218
  C       -4.039       5.251      21.221
  N       -3.991       3.884      21.164
  O       -0.722       7.643      17.290
  O       -1.395       7.641      19.757
  H       -5.712       2.225      19.383
  H       -2.218       7.961      19.339
  H       -6.025       1.038      23.936
  H       -3.528       5.882      20.510
  H       -3.186       2.064      20.569
  H       -4.488       4.042      18.601
  H       -3.077       3.219      16.863
  H       -0.791       2.852      18.464
  H       -0.902       4.741      16.974
  H       -7.055       5.095      25.566
  H       -6.239       6.282      24.548
  H       -2.256       5.470      17.864
  P       -3.110       0.690      16.434
  C       -5.402       0.548      15.208
  O       -4.690       0.943      16.358
  O       -2.641      -0.726      16.364
  O       -2.474       1.663      15.333
  H       -2.344       2.570      15.685
  H       -6.449       0.838      15.328
  H       -5.355      -0.538      15.089
  H       -4.998       1.039      14.319
  H        2.402       7.820      20.716
  H        1.359       6.422      20.826
  H        0.722       8.016      21.153

 3  4  5  6  7  8  9  10  11  12  22  25  29  30  31  32 0
 6-311+G(2d,p)
 ****
 33  36  37 0
 6-311+G(2d,p)
 ****
 1  2  13  14  15  16  17  18  19  20  21  23  24  26 0
 3-21G
 ****
 27  28  34  35  38  39  40  41  42  43  44  45  46  47  48 0
 3-21G
 ****


