%nproc=1
%NoSave
%Mem=1900MB
#P OB98/GEN NMR

erre ene a

0 1
  C      209.957    -235.920    -151.082
  O      210.028    -236.269    -149.713
  H      209.459    -234.951    -151.174
  H      209.371    -236.666    -151.627
  H      210.954    -235.841    -151.522
  P      210.945    -237.508    -149.278
  C      209.124    -239.278    -149.740
  O      210.413    -238.782    -150.091
  C      208.782    -240.522    -150.556
  O      207.515    -241.067    -150.065
  C      208.608    -240.260    -152.067
  O      209.031    -241.446    -152.761
  C      207.103    -240.087    -152.161
  O      206.650    -240.147    -153.493
  C      206.647    -241.198    -151.213
  N      205.243    -241.096    -150.831
  C      204.364    -241.998    -151.412
  O      204.690    -242.878    -152.206
  N      203.043    -241.850    -151.061
  C      202.545    -240.910    -150.205
  O      201.360    -240.835    -149.909
  C      203.527    -239.970    -149.644
  C      204.810    -240.101    -149.972
  O      211.100    -237.713    -147.806
  O      212.355    -237.203    -149.977
  H      212.958    -236.789    -149.332
  H      207.074    -239.442    -154.032
  H      202.383    -242.498    -151.473
  H      203.157    -239.197    -148.981
  H      205.563    -239.423    -149.582
  H      206.837    -242.181    -151.649
  H      206.813    -239.105    -151.778
  H      209.187    -239.402    -152.422
  H      209.547    -241.290    -150.373
  H      208.394    -238.489    -149.944
  H      209.107    -239.515    -148.672
  P      210.547    -241.685    -153.242
  C      210.690    -239.912    -155.112
  O      211.147    -240.313    -153.826
  O      210.697    -242.846    -154.178
  O      211.388    -241.934    -151.903
  H      212.086    -242.593    -152.079
  H      211.160    -238.991    -155.386
  H      209.629    -239.778    -155.088
  H      210.938    -240.666    -155.830

 6  7  8  9  10  11  12  13  14  15  16  27  31  32  33  34  35 0
 6-311+G(2d,p)
 ****
 36  37 0
 6-311+G(2d,p)
 ****
 1  2  3  4  5  17  18  19  20  21  22  23  24  25 0
 3-21G
 ****
 26  28  29  30  38  39  40  41  42  43  44  45 0
 3-21G
 ****


