%nproc=1
%NoSave
%Mem=1900MB
#P OB98/GEN NMR

erre ene a

0 1
  C     -558.851     176.578     436.744
  O     -557.620     177.161     436.370
  H     -558.766     175.497     436.641
  H     -559.646     176.938     436.088
  H     -559.099     176.816     437.783
  P     -557.350     178.697     436.732
  C     -556.010     179.568     434.699
  O     -555.959     179.105     436.040
  C     -554.720     179.216     433.949
  O     -553.586     179.748     434.689
  C     -554.523     177.700     433.857
  O     -553.758     177.333     432.707
  C     -553.708     177.392     435.099
  O     -552.963     176.173     434.998
  C     -552.835     178.641     435.210
  N     -549.914     177.258     439.162
  C     -550.198     176.570     438.001
  N     -549.619     175.341     437.873
  N     -550.987     177.017     437.062
  C     -551.546     178.216     437.358
  C     -551.363     178.991     438.478
  C     -550.463     178.491     439.493
  O     -550.188     179.056     440.556
  N     -552.107     180.143     438.426
  C     -552.745     180.064     437.273
  N     -552.419     178.931     436.579
  O     -556.967     178.661     438.285
  O     -558.492     179.633     436.466
  H     -552.480     176.054     435.840
  H     -557.123     179.530     438.695
  H     -549.275     176.878     439.839
  H     -553.432     180.810     436.892
  H     -551.926     178.535     434.608
  H     -554.396     177.273     435.940
  H     -549.174     174.887     438.654
  H     -555.458     177.150     433.856
  H     -550.056     174.708     437.199
  H     -554.709     179.703     432.965
  H     -556.153     180.652     434.742
  H     -556.882     179.144     434.185
  P     -554.406     176.298     431.660
  C     -552.041     175.670     430.654
  O     -553.389     176.036     430.454
  O     -555.589     177.131     430.984
  O     -554.896     175.021     432.275
  H     -556.456     176.732     431.203
  H     -551.560     175.550     429.706
  H     -551.998     174.748     431.195
  H     -551.543     176.435     431.213

 6  7  8  9  10  11  12  13  14  15  26  29  33  34 0
 6-311+G(2d,p)
 ****
 36  38  39  40  41 0
 6-311+G(2d,p)
 ****
 1  2  3  4  5  16  17  18  19  20  21  22  23  24  25 0
 3-21G
 ****
 27  28  30  31  32  35  37  42  43  44  45  46  47 0
 3-21G
 ****
 48  49 0
 3-21G
 ****


