%nproc=1
%NoSave
%Mem=1900MB
#P OB98/GEN NMR

erre ene a

0 1
  C     -275.844    1212.918    -296.880
  O     -275.530    1212.928    -295.496
  P     -275.502    1211.526    -294.688
  C     -272.957    1211.706    -294.350
  O     -274.035    1210.897    -294.802
  C     -271.599    1211.072    -294.650
  O     -271.341    1209.956    -293.755
  C     -271.418    1210.570    -296.054
  O     -270.040    1210.813    -296.449
  C     -271.678    1209.097    -295.933
  O     -271.175    1208.343    -297.019
  C     -271.007    1208.826    -294.562
  N     -271.454    1207.561    -293.953
  C     -271.068    1206.401    -294.571
  O     -270.468    1206.445    -295.661
  N     -271.369    1205.174    -293.959
  C     -272.149    1205.194    -292.913
  N     -272.445    1203.988    -292.342
  C     -272.718    1206.427    -292.328
  C     -272.319    1207.572    -292.889
  O     -276.637    1210.606    -295.008
  O     -275.559    1212.010    -293.144
  H     -271.421    1207.380    -296.887
  H     -276.076    1211.358    -292.646
  H     -273.437    1206.387    -291.514
  H     -272.664    1208.517    -292.518
  H     -269.919    1208.789    -294.680
  H     -272.757    1208.896    -295.863
  H     -272.076    1211.056    -296.807
  H     -270.810    1211.829    -294.414
  H     -272.060    1203.155    -292.774
  H     -273.076    1211.869    -293.272
  H     -272.986    1203.902    -291.462
  H     -273.046    1212.696    -294.805
  P     -269.740    1211.357    -297.925
  C     -269.644    1213.927    -297.670
  O     -270.397    1212.806    -298.065
  O     -270.713    1210.438    -298.823
  O     -268.317    1211.174    -298.409
  H     -270.335    1210.369    -299.717
  H     -270.136    1214.821    -298.100
  H     -268.628    1213.873    -298.034
  H     -269.656    1214.042    -296.599
  H     -275.819    1213.918    -297.259
  H     -276.822    1212.507    -297.021
  H     -275.128    1212.321    -297.404

 3  4  5  6  7  8  9  10  11  12  13  23  27  28  29  30  32 0
 6-311+G(2d,p)
 ****
 34  35 0
 6-311+G(2d,p)
 ****
 1  2  14  15  16  17  18  19  20  21  22  24  25  26 0
 3-21G
 ****
 31  33  36  37  38  39  40  41  42  43  44  45  46 0
 3-21G
 ****


