%nproc=1
%NoSave
%Mem=1900MB
#P OB98/GEN NMR

erre ene a

0 1
  C     -139.705      73.882     -13.225
  O     -140.080      72.557     -12.905
  P     -139.519      71.322     -13.761
  C     -141.848      71.109     -14.851
  O     -140.447      71.256     -15.071
  C     -142.605      71.070     -16.178
  O     -142.601      72.369     -16.802
  C     -142.011      70.115     -17.204
  O     -142.354      68.776     -16.896
  C     -142.628      70.647     -18.491
  O     -143.960      70.142     -18.679
  C     -142.654      72.169     -18.231
  N     -141.575      72.868     -18.916
  C     -141.955      73.969     -19.691
  O     -143.143      74.278     -19.795
  N     -140.984      74.663     -20.373
  C     -139.748      74.274     -20.303
  N     -138.835      74.994     -21.009
  C     -139.310      73.100     -19.521
  C     -140.267      72.450     -18.862
  O     -139.377      70.040     -13.011
  O     -138.131      71.879     -14.335
  H     -144.466      70.406     -17.885
  H     -137.438      71.914     -13.632
  H     -138.272      72.809     -19.503
  H     -140.034      71.575     -18.266
  H     -143.607      72.599     -18.567
  H     -142.048      70.360     -19.373
  H     -140.924      70.238     -17.240
  H     -143.648      70.797     -15.966
  H     -139.180      75.774     -21.556
  H     -142.195      71.963     -14.263
  H     -137.856      74.759     -21.054
  H     -142.029      70.197     -14.274
  P     -141.446      67.576     -17.439
  C     -142.802      66.880     -19.502
  O     -141.625      67.507     -19.029
  O     -141.607      66.275     -16.723
  O     -139.953      68.132     -17.270
  H     -139.391      67.427     -16.895
  H     -142.969      67.184     -20.539
  H     -143.669      67.167     -18.902
  H     -142.677      65.795     -19.468
  H     -140.178      74.560     -12.546
  H     -140.011      74.108     -14.225
  H     -138.643      73.981     -13.146

 3  4  5  6  7  8  9  10  11  12  13  23  27  28  29  30  32 0
 6-311+G(2d,p)
 ****
 34  35 0
 6-311+G(2d,p)
 ****
 1  2  14  15  16  17  18  19  20  21  22  24  25  26 0
 3-21G
 ****
 31  33  36  37  38  39  40  41  42  43  44  45  46 0
 3-21G
 ****


