%nproc=1
%NoSave
%Mem=1900MB
#P OB98/GEN NMR

erre ene a

0 1
  C      -62.762      40.630    -105.640
  O      -63.966      40.611    -104.901
  H      -62.982      40.949    -106.663
  H      -62.316      39.631    -105.667
  H      -62.058      41.338    -105.193
  P      -63.874      40.061    -103.394
  C      -65.468      41.704    -102.138
  O      -64.136      41.374    -102.501
  C      -65.463      42.636    -100.932
  O      -64.808      43.888    -101.253
  C      -66.850      43.032    -100.428
  O      -67.481      42.015     -99.668
  C      -66.488      44.235     -99.576
  O      -65.880      43.793     -98.348
  C      -65.460      44.938    -100.488
  N      -66.071      45.924    -101.386
  C      -66.003      47.264    -100.983
  O      -65.454      47.580     -99.925
  N      -66.588      48.223    -101.780
  C      -67.170      47.879    -102.883
  N      -67.735      48.872    -103.628
  C      -67.255      46.482    -103.352
  C      -66.692      45.568    -102.565
  O      -62.307      39.804    -103.189
  O      -64.744      38.895    -103.069
  H      -65.136      43.214     -98.597
  H      -62.120      39.598    -102.239
  H      -67.763      46.240    -104.275
  H      -66.712      44.520    -102.844
  H      -64.687      45.439     -99.892
  H      -67.348      44.845     -99.304
  H      -67.497      43.358    -101.249
  H      -64.874      42.156    -100.135
  H      -67.712      49.811    -103.251
  H      -65.996      40.775    -101.897
  H      -68.337      48.692    -104.421
  H      -65.972      42.197    -102.975
  P      -68.569      41.099    -100.413
  C      -67.736      38.749     -99.652
  O      -67.864      39.687    -100.717
  O      -68.676      41.770    -101.858
  O      -69.898      41.016     -99.731
  H      -69.587      41.703    -102.212
  H      -67.250      37.866    -100.011
  H      -68.707      38.496     -99.281
  H      -67.155      39.181     -98.864

 6  7  8  9  10  11  12  13  14  15  16  26  30  31  32  33  35 0
 6-311+G(2d,p)
 ****
 37  38 0
 6-311+G(2d,p)
 ****
 1  2  3  4  5  17  18  19  20  21  22  23  24  25 0
 3-21G
 ****
 27  28  29  34  36  39  40  41  42  43  44  45  46 0
 3-21G
 ****


