%nproc=1
%NoSave
%Mem=1900MB
#P OB98/GEN NMR

erre ene a

0 1
  C      170.264     210.406    1478.313
  O      169.992     210.223    1479.722
  P      171.037     210.608    1480.861
  C      169.413     211.859    1482.434
  O      170.554     211.953    1481.592
  C      169.666     212.517    1483.821
  O      170.669     211.781    1484.547
  C      170.191     213.952    1483.744
  O      169.133     214.847    1483.417
  C      170.759     214.113    1485.146
  O      169.737     214.432    1486.103
  C      171.345     212.711    1485.427
  N      172.788     212.662    1485.246
  C      173.551     212.327    1486.380
  O      172.998     212.161    1487.463
  N      174.918     212.219    1486.240
  C      175.460     212.484    1485.106
  N      176.830     212.355    1485.028
  C      174.710     212.928    1483.909
  C      173.384     212.975    1484.035
  O      172.473     210.646    1480.400
  O      170.846     209.499    1482.005
  H      169.303     215.246    1485.767
  H      171.711     209.369    1482.452
  H      175.223     213.180    1482.993
  H      172.755     213.276    1483.218
  H      171.094     212.385    1486.446
  H      171.514     214.926    1485.206
  H      171.006     214.027    1482.997
  H      168.734     212.465    1484.391
  H      177.302     212.059    1485.869
  H      169.189     210.804    1482.590
  H      177.363     212.530    1484.184
  H      168.564     212.316    1481.945
  P      169.231     215.766    1482.095
  C      167.138     214.535    1481.240
  O      168.456     214.995    1480.923
  O      170.627     216.216    1481.742
  O      168.292     217.013    1482.410
  H      168.657     217.796    1481.964
  H      166.576     214.420    1480.313
  H      166.635     215.248    1481.902
  H      167.226     213.557    1481.740
  H      169.421     210.078    1477.741
  H      171.125     209.833    1478.039
  H      170.447     211.442    1478.117

 3  4  5  6  7  8  9  10  11  12  13  23  27  28  29  30  32 0
 6-311+G(2d,p)
 ****
 34  35 0
 6-311+G(2d,p)
 ****
 1  2  14  15  16  17  18  19  20  21  22  24  25  26 0
 3-21G
 ****
 31  33  36  37  38  39  40  41  42  43  44  45  46 0
 3-21G
 ****


