%nproc=1
%NoSave
%Mem=1900MB
#P OB98/GEN NMR

erre ene a

0 1
  C     -158.098     -23.592    -121.147
  O     -158.022     -24.831    -120.470
  H     -157.538     -23.664    -122.082
  H     -157.646     -22.809    -120.529
  H     -159.138     -23.335    -121.373
  P     -159.016     -25.054    -119.232
  C     -161.478     -25.491    -119.922
  O     -160.183     -26.042    -119.736
  C     -162.316     -26.393    -120.833
  O     -161.552     -26.679    -122.036
  C     -162.696     -27.739    -120.194
  O     -164.029     -28.080    -120.591
  C     -161.709     -28.716    -120.816
  O     -162.200     -30.056    -120.830
  C     -161.516     -28.106    -122.202
  N     -159.458     -31.052    -125.740
  C     -160.785     -30.787    -125.463
  N     -161.706     -31.404    -126.240
  N     -161.178     -29.984    -124.505
  C     -160.146     -29.412    -123.832
  C     -158.794     -29.601    -124.008
  C     -158.374     -30.511    -125.056
  O     -157.217     -30.809    -125.331
  N     -158.065     -28.863    -123.104
  C     -158.979     -28.235    -122.383
  N     -160.253     -28.528    -122.791
  O     -159.755     -23.637    -119.102
  O     -158.363     -25.451    -117.948
  H     -163.096     -30.039    -121.231
  H     -159.524     -23.222    -118.248
  H     -159.212     -31.693    -126.481
  H     -158.773     -27.567    -121.556
  H     -162.312     -28.395    -122.899
  H     -160.769     -28.702    -120.247
  H     -161.475     -31.992    -127.024
  H     -162.633     -27.728    -119.104
  H     -162.688     -31.191    -126.078
  H     -163.210     -25.841    -121.146
  H     -161.381     -24.500    -120.379
  H     -161.973     -25.387    -118.948
  P     -164.786     -29.198    -119.724
  C     -166.060     -28.238    -117.680
  O     -166.096     -28.533    -119.070
  O     -163.808     -29.411    -118.475
  O     -165.021     -30.481    -120.464
  H     -163.358     -30.277    -118.551
  H     -166.991     -27.803    -117.384
  H     -165.265     -27.549    -117.482
  H     -165.896     -29.140    -117.128

 6  7  8  9  10  11  12  13  14  15  26  29  33  34 0
 6-311+G(2d,p)
 ****
 36  38  39  40  41 0
 6-311+G(2d,p)
 ****
 1  2  3  4  5  16  17  18  19  20  21  22  23  24  25 0
 3-21G
 ****
 27  28  30  31  32  35  37  42  43  44  45  46  47 0
 3-21G
 ****
 48  49 0
 3-21G
 ****


