%nproc=1
%NoSave
%Mem=1900MB
#P OB98/GEN NMR

erre ene a

0 1
  C      188.488    -355.149     -38.647
  O      187.089    -355.213     -38.849
  H      188.933    -354.481     -39.389
  H      188.680    -354.745     -37.650
  H      188.937    -356.143     -38.720
  P      186.566    -356.049     -40.116
  C      184.217    -356.664     -41.036
  O      184.979    -356.215     -39.925
  C      182.983    -357.433     -40.566
  O      183.428    -358.619     -39.844
  C      182.058    -356.635     -39.630
  O      180.702    -356.964     -39.951
  C      182.392    -357.195     -38.255
  O      181.317    -357.048     -37.333
  C      182.721    -358.644     -38.591
  N      182.664    -360.070     -33.711
  C      181.671    -359.759     -34.569
  N      181.771    -359.439     -35.876
  C      183.048    -359.528     -36.295
  C      184.166    -359.842     -35.535
  C      183.937    -360.100     -34.171
  N      184.948    -360.351     -33.272
  N      185.305    -359.770     -36.312
  C      184.887    -359.403     -37.506
  N      183.532    -359.241     -37.541
  O      187.136    -357.518     -39.814
  O      187.006    -355.540     -41.447
  H      181.541    -357.529     -36.510
  H      188.036    -357.599     -40.175
  H      180.668    -359.755     -34.156
  H      185.520    -359.207     -38.361
  H      181.826    -359.266     -38.713
  H      183.266    -356.671     -37.851
  H      182.200    -355.553     -39.688
  H      182.436    -357.784     -41.447
  H      184.839    -357.325     -41.647
  H      184.701    -360.424     -32.295
  H      185.906    -360.272     -33.578
  H      183.916    -355.803     -41.643
  P      179.972    -356.077     -41.069
  C      177.486    -355.639     -41.717
  O      178.421    -355.952     -40.689
  O      179.964    -357.039     -42.348
  O      180.661    -354.779     -41.356
  H      180.038    -356.511     -43.166
  H      176.501    -355.593     -41.301
  H      177.519    -356.396     -42.472
  H      177.735    -354.693     -42.150

 6  7  8  9  10  11  12  13  14  15  25  28  32  33  34  35 0
 6-311+G(2d,p)
 ****
 36  39  40 0
 6-311+G(2d,p)
 ****
 1  2  3  4  5  16  17  18  19  20  21  22  23  24 0
 3-21G
 ****
 26  27  29  30  31  37  38  41  42  43  44  45  46  47 0
 3-21G
 ****
 48 0
 3-21G
 ****


