%nproc=1
%NoSave
%Mem=1900MB
#P OB98/GEN NMR

erre ene a

0 1
  C       79.359      46.064    -205.809
  O       78.690      47.048    -205.032
  P       78.074      46.608    -203.618
  C       78.492      49.003    -202.718
  O       77.559      47.947    -202.894
  C       77.780      50.340    -202.509
  O       77.332      50.844    -203.797
  C       76.549      50.270    -201.599
  O       76.469      51.514    -200.896
  C       75.399      50.180    -202.583
  O       74.159      50.575    -202.003
  C       75.915      51.094    -203.689
  N       71.841      52.144    -206.596
  C       72.212      52.587    -205.377
  N       73.313      52.263    -204.666
  C       74.070      51.381    -205.342
  C       73.802      50.815    -206.576
  C       72.626      51.233    -207.221
  N       72.251      50.791    -208.468
  N       74.800      49.930    -206.931
  C       75.653      49.960    -205.928
  N       75.266      50.840    -204.957
  O       79.375      46.205    -202.777
  O       77.092      45.488    -203.672
  H       74.248      51.493    -201.687
  H       79.385      45.240    -202.620
  H       71.540      53.304    -204.912
  H       76.556      49.368    -205.856
  H       75.777      52.156    -203.446
  H       75.294      49.147    -202.936
  H       76.563      49.433    -200.890
  H       78.507      51.060    -202.114
  H       79.113      49.075    -203.615
  H       71.471      51.241    -208.919
  H       72.919      50.264    -209.020
  H       79.140      48.781    -201.866
  P       76.289      51.440    -199.303
  C       77.215      53.817    -198.834
  O       76.102      52.945    -198.792
  O       77.752      51.040    -198.786
  O       75.256      50.463    -198.852
  H       77.685      50.556    -197.943
  H       76.862      54.831    -199.039
  H       77.930      53.529    -199.612
  H       77.717      53.803    -197.865
  H       79.712      46.506    -206.717
  H       78.680      45.269    -206.039
  H       80.188      45.676    -205.256

 3  4  5  6  7  8  9  10  11  12  22  25  29  30  31  32 0
 6-311+G(2d,p)
 ****
 33  36  37 0
 6-311+G(2d,p)
 ****
 1  2  13  14  15  16  17  18  19  20  21  23  24  26 0
 3-21G
 ****
 27  28  34  35  38  39  40  41  42  43  44  45  46  47  48 0
 3-21G
 ****


