%nproc=1
%NoSave
%Mem=1900MB
#P OB98/GEN NMR

erre ene a

0 1
  C      274.833     655.433     -57.529
  O      274.639     654.104     -57.077
  H      274.146     655.626     -58.356
  H      275.861     655.563     -57.888
  H      274.628     656.142     -56.723
  P      275.638     653.594     -55.923
  C      276.397     651.427     -57.160
  O      275.635     652.005     -56.109
  C      275.625     650.276     -57.792
  O      275.284     649.288     -56.793
  C      274.287     650.687     -58.419
  O      274.439     651.301     -59.694
  C      273.606     649.339     -58.511
  O      274.149     648.590     -59.613
  C      273.993     648.708     -57.153
  N      273.011     648.948     -56.106
  C      272.027     647.979     -55.915
  O      271.998     646.974     -56.639
  N      271.071     648.165     -54.945
  C      271.094     649.232     -54.215
  N      270.124     649.390     -53.277
  C      272.128     650.288     -54.349
  C      273.041     650.080     -55.305
  O      274.790     653.789     -54.575
  O      276.988     654.228     -55.904
  H      273.551     647.836     -59.762
  H      275.275     653.384     -53.817
  H      272.108     651.166     -53.733
  H      273.831     650.813     -55.474
  H      274.140     647.624     -57.255
  H      272.524     649.427     -58.679
  H      273.705     651.334     -57.747
  H      276.275     649.790     -58.534
  H      269.394     648.683     -53.234
  H      277.339     651.062     -56.740
  H      269.964     650.264     -52.787
  H      276.615     652.173     -57.926
  P      273.307     652.315     -60.178
  C      272.151     651.220     -62.236
  O      273.151     652.113     -61.766
  O      274.005     653.746     -60.061
  O      272.020     652.255     -59.400
  H      273.385     654.417     -59.738
  H      272.171     651.193     -63.305
  H      271.190     651.555     -61.905
  H      272.339     650.240     -61.851

 6  7  8  9  10  11  12  13  14  15  16  26  30  31  32  33  35 0
 6-311+G(2d,p)
 ****
 37  38 0
 6-311+G(2d,p)
 ****
 1  2  3  4  5  17  18  19  20  21  22  23  24  25 0
 3-21G
 ****
 27  28  29  34  36  39  40  41  42  43  44  45  46 0
 3-21G
 ****


