%nproc=1
%NoSave
%Mem=1900MB
#P OB98/GEN NMR

erre ene a

0 1
  C      310.912     331.966    -483.586
  O      309.555     331.581    -483.694
  H      310.971     332.836    -482.922
  H      311.300     332.246    -484.564
  H      311.505     331.153    -483.153
  P      309.184     330.263    -484.536
  C      308.423     328.956    -482.455
  O      308.036     329.495    -483.709
  C      307.213     328.810    -481.526
  O      306.867     330.113    -481.000
  C      305.971     328.249    -482.234
  O      305.282     327.377    -481.327
  C      305.123     329.479    -482.506
  O      303.727     329.182    -482.591
  C      305.475     330.367    -481.311
  N      302.428     334.309    -480.458
  C      302.394     333.014    -479.935
  N      301.382     332.739    -479.074
  N      303.272     332.099    -480.233
  C      304.234     332.520    -481.098
  C      304.372     333.766    -481.674
  C      303.384     334.779    -481.358
  O      303.336     335.927    -481.800
  N      305.453     333.802    -482.518
  C      305.976     332.582    -482.434
  N      305.262     331.781    -481.598
  O      310.352     329.402    -484.918
  O      308.405     330.821    -485.814
  H      303.594     328.679    -483.429
  H      309.003     330.856    -486.591
  H      301.724     334.976    -480.197
  H      306.859     332.250    -482.976
  H      304.880     330.132    -480.415
  H      305.439     329.949    -483.441
  H      300.687     333.409    -478.797
  H      306.208     327.705    -483.165
  H      301.360     331.814    -478.673
  H      307.496     328.172    -480.684
  H      309.156     329.634    -481.994
  H      308.901     327.975    -482.604
  P      304.153     326.396    -481.918
  C      305.407     324.161    -481.614
  O      304.315     324.975    -481.197
  O      304.034     326.350    -483.404
  O      302.806     326.968    -481.236
  H      302.060     326.803    -481.836
  H      305.402     323.246    -481.059
  H      306.326     324.680    -481.438
  H      305.313     323.946    -482.658

 6  7  8  9  10  11  12  13  14  15  26  29  33  34 0
 6-311+G(2d,p)
 ****
 36  38  39  40  41 0
 6-311+G(2d,p)
 ****
 1  2  3  4  5  16  17  18  19  20  21  22  23  24  25 0
 3-21G
 ****
 27  28  30  31  32  35  37  42  43  44  45  46  47 0
 3-21G
 ****
 48  49 0
 3-21G
 ****


