%nproc=1
%NoSave
%Mem=1900MB
#P OB98/GEN NMR

erre ene a

0 1
  C       72.462    -354.970     100.862
  O       73.408    -354.168     100.165
  P       73.798    -354.608      98.670
  C       76.266    -355.391      98.418
  O       74.945    -355.724      98.836
  C       77.034    -354.720      99.550
  O       76.872    -355.470     100.771
  C       78.536    -354.620      99.323
  O       78.883    -353.512      98.505
  C       79.026    -354.400     100.748
  O       78.834    -353.025     101.126
  C       78.085    -355.306     101.554
  N       81.562    -357.832     104.330
  C       81.280    -356.514     104.223
  N       80.348    -355.915     103.448
  C       79.685    -356.829     102.714
  C       79.891    -358.199     102.691
  C       80.872    -358.706     103.558
  N       81.135    -360.049     103.691
  N       79.028    -358.807     101.808
  C       78.305    -357.824     101.308
  N       78.660    -356.611     101.833
  O       74.594    -353.336      98.115
  O       72.644    -354.977      97.800
  H       77.892    -352.814     100.967
  H       74.564    -353.326      97.141
  H       81.881    -355.848     104.840
  H       77.514    -357.941     100.580
  H       77.801    -354.859     102.515
  H       80.096    -354.615     100.866
  H       78.942    -355.561      98.935
  H       76.602    -353.723      99.710
  H       76.208    -354.699      97.568
  H       81.719    -360.346     104.462
  H       80.487    -360.707     103.267
  H       76.777    -356.301      98.093
  P       80.325    -353.559      97.800
  C       82.050    -352.024      98.993
  O       81.380    -353.271      98.963
  O       80.342    -352.222      96.921
  O       80.560    -354.782      96.975
  H       80.949    -352.321      96.161
  H       82.477    -351.874      99.983
  H       81.360    -351.197      98.776
  H       82.862    -352.025      98.255
  H       72.299    -354.562     101.838
  H       72.837    -355.968     100.951
  H       71.538    -354.983     100.322

 3  4  5  6  7  8  9  10  11  12  22  25  29  30  31  32 0
 6-311+G(2d,p)
 ****
 33  36  37 0
 6-311+G(2d,p)
 ****
 1  2  13  14  15  16  17  18  19  20  21  23  24  26 0
 3-21G
 ****
 27  28  34  35  38  39  40  41  42  43  44  45  46  47  48 0
 3-21G
 ****


