%nproc=1
%NoSave
%Mem=1900MB
#P OB98/GEN NMR

erre ene a

0 1
  C     -246.799     517.476     343.768
  O     -247.017     516.243     344.424
  H     -246.011     517.339     343.023
  H     -246.478     518.240     344.483
  H     -247.709     517.802     343.255
  P     -248.109     516.190     345.598
  C     -248.030     516.602     348.151
  O     -247.408     516.841     346.890
  C     -247.249     517.303     349.263
  O     -247.173     518.725     349.002
  C     -247.869     517.150     350.648
  O     -247.514     515.905     351.226
  C     -247.224     518.326     351.371
  O     -245.863     518.001     351.709
  C     -247.248     519.415     350.282
  N     -249.446     523.561     352.238
  C     -248.263     522.931     352.592
  N     -247.587     523.473     353.624
  N     -247.798     521.867     351.986
  C     -248.611     521.402     351.016
  C     -249.814     521.926     350.586
  C     -250.297     523.136     351.221
  O     -251.323     523.737     350.923
  N     -250.400     521.120     349.642
  C     -249.534     520.148     349.454
  N     -248.433     520.264     350.276
  O     -248.730     514.850     345.860
  O     -249.197     517.287     345.181
  H     -245.893     517.296     352.382
  H     -249.919     516.885     344.657
  H     -249.762     524.370     352.746
  H     -249.647     519.338     348.746
  H     -246.383     520.083     350.345
  H     -247.735     518.588     352.305
  H     -247.967     524.190     354.222
  H     -248.954     517.301     350.630
  H     -246.749     522.989     353.937
  H     -246.219     516.917     349.248
  H     -248.033     515.519     348.312
  H     -249.067     516.957     348.141
  P     -248.237     515.355     352.556
  C     -247.834     515.789     355.077
  O     -247.670     516.264     353.753
  O     -248.111     513.888     352.781
  O     -249.740     515.872     352.434
  H     -250.322     515.266     351.901
  H     -247.411     516.493     355.763
  H     -247.338     514.847     355.182
  H     -248.876     515.669     355.286

 6  7  8  9  10  11  12  13  14  15  26  29  33  34 0
 6-311+G(2d,p)
 ****
 36  38  39  40  41 0
 6-311+G(2d,p)
 ****
 1  2  3  4  5  16  17  18  19  20  21  22  23  24  25 0
 3-21G
 ****
 27  28  30  31  32  35  37  42  43  44  45  46  47 0
 3-21G
 ****
 48  49 0
 3-21G
 ****


