%nproc=1
%NoSave
%Mem=1900MB
#P OB98/GEN NMR

erre ene a

0 1
  C      311.109     340.714     -55.600
  O      312.108     341.244     -56.474
  P      311.877     342.686     -57.140
  C      310.757     341.873     -59.307
  O      310.587     342.609     -58.097
  C      309.402     341.450     -59.918
  O      308.628     342.613     -60.320
  C      309.537     340.548     -61.152
  O      308.439     339.619     -61.120
  C      309.360     341.531     -62.304
  O      309.029     340.893     -63.525
  C      308.284     342.445     -61.711
  N      308.198     343.724     -62.406
  C      307.272     344.649     -61.930
  O      306.494     344.326     -61.021
  N      307.230     345.889     -62.503
  C      307.942     346.141     -63.556
  N      307.885     347.388     -64.093
  C      308.800     345.123     -64.208
  C      308.900     343.959     -63.566
  O      313.081     343.314     -57.754
  O      311.333     343.566     -55.900
  H      308.211     340.372     -63.398
  H      311.665     344.482     -56.001
  H      309.317     345.342     -65.127
  H      309.512     343.156     -63.953
  H      307.301     341.965     -61.743
  H      310.298     342.085     -62.459
  H      310.479     339.981     -61.193
  H      308.833     340.924     -59.150
  H      307.274     348.069     -63.658
  H      311.350     340.980     -59.101
  H      308.451     347.674     -64.881
  H      311.339     342.469     -60.016
  P      308.692     338.150     -60.510
  C      308.845     336.618     -62.604
  O      309.539     337.306     -61.578
  O      307.236     337.494     -60.634
  O      309.161     338.095     -59.090
  H      307.152     336.784     -59.966
  H      309.561     336.341     -63.389
  H      308.066     337.241     -63.048
  H      308.389     335.703     -62.202
  H      311.418     339.753     -55.246
  H      310.185     340.618     -56.131
  H      310.976     341.374     -54.769

 3  4  5  6  7  8  9  10  11  12  13  23  27  28  29  30  32 0
 6-311+G(2d,p)
 ****
 34  35 0
 6-311+G(2d,p)
 ****
 1  2  14  15  16  17  18  19  20  21  22  24  25  26 0
 3-21G
 ****
 31  33  36  37  38  39  40  41  42  43  44  45  46 0
 3-21G
 ****


