%nproc=1
%NoSave
%Mem=1900MB
#P OB98/GEN NMR

erre ene a

0 1
  C        2.317       6.019      -5.898
  O        1.069       6.665      -5.781
  H        2.978       6.644      -6.505
  H        2.187       5.056      -6.399
  H        2.781       5.864      -4.921
  P        0.076       6.214      -4.611
  C        0.179       5.965      -2.046
  O        0.915       6.177      -3.243
  C        0.704       4.763      -1.259
  O        0.439       3.540      -1.980
  C        2.218       4.816      -1.059
  O        2.657       5.592       0.041
  C        2.558       3.342      -0.859
  O        2.385       2.958       0.515
  C        1.532       2.635      -1.748
  N        4.100      -0.976      -4.289
  C        3.808      -0.903      -2.942
  N        4.315      -1.887      -2.167
  N        3.101       0.058      -2.409
  C        2.743       1.022      -3.289
  C        2.986       1.066      -4.644
  C        3.723      -0.033      -5.234
  O        4.015      -0.141      -6.421
  N        2.463       2.202      -5.213
  C        1.973       2.877      -4.193
  N        2.095       2.190      -3.009
  O       -0.170       4.656      -4.906
  O       -1.221       6.961      -4.548
  H        1.564       3.364       0.846
  H       -1.032       4.383      -4.547
  H        4.624      -1.753      -4.649
  H        1.498       3.850      -4.260
  H        1.114       1.750      -1.251
  H        3.599       3.129      -1.118
  H        4.959      -2.580      -2.513
  H        2.711       5.162      -1.973
  H        4.351      -1.729      -1.158
  H        0.171       4.698      -0.303
  H       -0.858       5.793      -2.341
  H        0.195       6.865      -1.425
  P        4.131       6.218       0.043
  C        5.277       7.988      -1.481
  O        4.331       6.948      -1.369
  O        5.065       4.923      -0.061
  O        4.460       7.046       1.237
  H        5.372       4.657       0.826
  H        5.281       8.360      -2.484
  H        6.249       7.614      -1.236
  H        5.019       8.779      -0.808

 6  7  8  9  10  11  12  13  14  15  26  29  33  34 0
 6-311+G(2d,p)
 ****
 36  38  39  40  41 0
 6-311+G(2d,p)
 ****
 1  2  3  4  5  16  17  18  19  20  21  22  23  24  25 0
 3-21G
 ****
 27  28  30  31  32  35  37  42  43  44  45  46  47 0
 3-21G
 ****
 48  49 0
 3-21G
 ****


