%nproc=1
%NoSave
%Mem=1900MB
#P OB98/GEN NMR

erre ene a

0 1
  C      552.090    -850.024    -566.460
  O      551.665    -848.699    -566.829
  P      551.484    -847.651    -565.633
  C      552.888    -845.489    -566.008
  O      552.867    -846.817    -565.472
  C      554.305    -844.857    -565.839
  O      554.597    -844.731    -564.407
  C      555.459    -845.663    -566.471
  O      556.407    -844.731    -567.006
  C      556.102    -846.333    -565.258
  O      557.443    -846.694    -565.540
  C      555.926    -845.266    -564.203
  N      559.151    -846.192    -560.418
  C      559.356    -845.518    -561.601
  N      560.603    -845.076    -561.816
  N      558.411    -845.326    -562.509
  C      557.210    -845.807    -562.105
  C      556.832    -846.455    -560.946
  C      557.934    -846.697    -559.989
  O      557.811    -847.335    -558.925
  N      555.522    -846.794    -560.932
  C      555.058    -846.361    -562.086
  N      556.045    -845.735    -562.845
  O      551.447    -848.542    -564.313
  O      550.241    -846.788    -565.745
  H      557.699    -847.419    -564.936
  H      550.612    -848.403    -563.822
  H      559.894    -846.339    -559.758
  H      554.041    -846.459    -562.444
  H      556.617    -844.441    -564.324
  H      555.561    -847.263    -565.046
  H      561.375    -845.141    -561.141
  H      555.150    -846.351    -567.244
  H      560.778    -844.544    -562.698
  H      554.273    -843.835    -566.244
  H      552.149    -844.864    -565.503
  H      552.650    -845.548    -567.055
  P      556.454    -844.565    -568.595
  C      555.416    -842.185    -568.776
  O      555.252    -843.574    -568.982
  O      555.927    -846.004    -569.117
  O      557.759    -844.205    -569.180
  H      556.284    -846.191    -570.034
  H      556.416    -841.921    -568.510
  H      554.773    -841.880    -567.923
  H      555.103    -841.653    -569.672
  H      552.175    -850.629    -567.338
  H      551.371    -850.457    -565.797
  H      553.040    -849.971    -565.971

 3  4  5  6  7  8  9  10  11  12  23  26  30  31  33  0
 6-311+G(2d,p)
 ****
 35  36  37  38 0
 6-311+G(2d,p)
 ****
 1  2  13  14  15  16  17  18  19  20  21  22  24  25  27  28  29 0
 3-21G
 ****
 32  34  39  40  41  42  43  44  45  46  47  48  49 0
 3-21G
 ****


