%nproc=1
%NoSave
%Mem=1900MB
#P OB98/GEN NMR

erre ene a

0 1
  C      195.282    -186.676     347.050
  O      194.347    -185.843     346.391
  P      193.318    -186.542     345.367
  C      194.226    -185.421     343.204
  O      194.058    -186.628     343.941
  C      193.858    -185.627     341.735
  O      193.890    -184.338     341.058
  C      194.797    -186.573     340.959
  O      193.988    -187.274     340.014
  C      195.733    -185.596     340.275
  O      196.466    -186.150     339.193
  C      194.746    -184.488     339.907
  N      194.600    -180.297     336.969
  C      193.743    -181.344     337.092
  N      193.850    -182.416     337.905
  C      194.968    -182.347     338.646
  C      195.936    -181.360     338.614
  C      195.717    -180.295     337.724
  N      196.603    -179.236     337.589
  N      196.955    -181.641     339.500
  C      196.608    -182.782     340.059
  N      195.403    -183.237     339.586
  O      192.207    -185.410     345.143
  O      192.718    -187.827     345.854
  H      197.095    -186.823     339.526
  H      191.316    -185.800     345.085
  H      192.865    -181.314     336.459
  H      197.198    -183.320     340.787
  H      194.121    -184.763     339.053
  H      196.467    -185.229     341.001
  H      195.308    -187.299     341.603
  H      192.830    -185.998     341.682
  H      195.279    -185.123     343.256
  H      196.455    -178.638     336.788
  H      197.516    -179.347     337.999
  H      193.624    -184.633     343.658
  P      194.257    -188.838     339.767
  C      195.046    -188.404     337.353
  O      195.406    -188.853     338.636
  O      192.969    -189.238     338.906
  O      194.478    -189.665     340.981
  H      192.831    -188.628     338.155
  H      195.933    -188.374     336.720
  H      194.611    -187.396     337.405
  H      194.319    -189.097     336.908
  H      195.897    -186.082     347.694
  H      195.896    -187.167     346.324
  H      194.760    -187.408     347.630

 3  4  5  6  7  8  9  10  11  12  22  25  29  30  31  32 0
 6-311+G(2d,p)
 ****
 33  36  37 0
 6-311+G(2d,p)
 ****
 1  2  13  14  15  16  17  18  19  20  21  23  24  26 0
 3-21G
 ****
 27  28  34  35  38  39  40  41  42  43  44  45  46  47  48 0
 3-21G
 ****


