%nproc=1
%NoSave
%Mem=1900MB
#P OB98/GEN NMR

erre ene a

0 1
  C     -161.953     448.741    -125.417
  O     -161.780     448.027    -126.627
  P     -161.848     446.428    -126.651
  C     -159.499     445.274    -126.917
  O     -160.472     445.854    -126.072
  C     -158.495     446.353    -127.346
  O     -158.057     447.109    -126.199
  C     -157.264     445.743    -128.011
  O     -157.415     445.731    -129.423
  C     -156.150     446.653    -127.532
  O     -156.090     447.853    -128.331
  C     -156.615     446.983    -126.090
  N     -156.313     446.008    -125.021
  C     -155.045     445.983    -124.453
  O     -154.138     446.751    -124.770
  N     -154.841     445.008    -123.509
  C     -155.774     444.115    -123.060
  O     -155.516     443.109    -122.408
  C     -157.151     444.372    -123.501
  C     -157.353     445.273    -124.461
  O     -161.761     446.088    -128.212
  O     -163.054     445.823    -126.013
  H     -155.226     448.265    -128.156
  H     -162.649     445.910    -128.574
  H     -153.879     444.887    -123.192
  H     -157.945     443.781    -123.067
  H     -158.360     445.460    -124.822
  H     -156.217     447.958    -125.768
  H     -155.174     446.172    -127.639
  H     -157.085     444.733    -127.625
  H     -158.997     447.046    -128.035
  H     -159.983     444.831    -127.798
  H     -158.982     444.461    -126.391
  P     -156.588     444.675    -130.297
  C     -154.806     446.120    -131.446
  O     -155.092     445.254    -130.361
  O     -157.192     444.307    -131.615
  O     -156.473     443.402    -129.322
  H     -157.166     442.747    -129.550
  H     -153.829     446.583    -131.275
  H     -155.563     446.903    -131.524
  H     -154.771     445.546    -132.379
  H     -161.873     449.791    -125.608
  H     -161.198     448.447    -124.718
  H     -162.919     448.525    -125.010

 3  4  5  6  7  8  9  10  11  12  13  23  28  29  30  31  32 0
 6-311+G(2d,p)
 ****
 33  34 0
 6-311+G(2d,p)
 ****
 1  2  14  15  16  17  18  19  20  21  22  24  25  26  27 0
 3-21G
 ****
 35  36  37  38  39  40  41  42  43  44  45 0
 3-21G
 ****


