%nproc=1
%NoSave
%Mem=1900MB
#P OB98/GEN NMR

erre ene a

0 1
  C       47.366     777.855    -200.265
  O       46.159     777.124    -200.281
  H       48.056     777.382    -199.561
  H       47.181     778.881    -199.936
  H       47.827     777.860    -201.259
  P       45.052     777.547    -201.366
  C       45.507     775.723    -203.158
  O       45.619     777.091    -202.800
  C       44.401     775.529    -204.198
  O       44.786     776.212    -205.421
  C       44.127     774.064    -204.542
  O       42.719     773.892    -204.726
  C       44.837     773.864    -205.871
  O       44.279     772.804    -206.642
  C       44.710     775.258    -206.501
  N       45.752     775.487    -207.499
  C       45.352     776.097    -208.694
  O       44.174     776.402    -208.870
  N       46.282     776.292    -209.685
  C       47.490     775.840    -209.529
  N       48.358     776.033    -210.554
  C       47.937     775.131    -208.314
  C       47.029     774.998    -207.346
  O       45.173     779.142    -201.415
  O       43.663     777.089    -201.075
  H       44.820     772.700    -207.453
  H       44.312     779.556    -201.611
  H       48.947     774.745    -208.240
  H       47.262     774.484    -206.417
  H       43.730     775.375    -206.978
  H       45.895     773.627    -205.686
  H       44.476     773.366    -203.775
  H       43.492     776.026    -203.829
  H       48.006     776.509    -211.383
  H       45.257     775.141    -202.266
  H       49.309     775.686    -210.564
  H       46.467     775.372    -203.552
  P       41.984     772.844    -203.761
  C       40.146     774.281    -202.624
  O       41.409     773.642    -202.497
  O       43.195     771.990    -203.160
  O       40.995     771.972    -204.468
  H       43.196     771.089    -203.541
  H       39.899     774.768    -201.704
  H       39.398     773.551    -202.853
  H       40.190     775.005    -203.411

 6  7  8  9  10  11  12  13  14  15  16  26  30  31  32  33  35 0
 6-311+G(2d,p)
 ****
 37  38 0
 6-311+G(2d,p)
 ****
 1  2  3  4  5  17  18  19  20  21  22  23  24  25 0
 3-21G
 ****
 27  28  29  34  36  39  40  41  42  43  44  45  46 0
 3-21G
 ****


