%nproc=1
%NoSave
%Mem=1900MB
#P OB98/GEN NMR

erre ene a

0 1
  C      689.643     986.930     447.187
  O      689.795     985.569     447.530
  H      689.191     987.458     448.028
  H      688.985     987.025     446.320
  H      690.613     987.384     446.963
  P      690.654     984.647     446.534
  C      692.842     985.408     447.717
  O      692.129     985.276     446.495
  C      694.153     986.148     447.482
  O      695.007     985.319     446.639
  C      693.996     987.504     446.776
  O      694.968     988.405     447.307
  C      694.348     987.184     445.334
  O      694.776     988.315     444.583
  C      695.446     986.138     445.529
  N      695.666     985.320     444.336
  C      696.855     984.598     444.274
  O      697.684     984.526     445.183
  N      697.078     983.929     443.098
  C      696.262     983.934     442.004
  O      696.529     983.335     440.965
  C      695.032     984.726     442.126
  C      694.797     985.375     443.265
  O      690.050     985.021     445.097
  O      690.609     983.183     446.817
  H      689.305     984.432     444.881
  H      695.492     988.748     445.096
  H      697.935     983.398     443.040
  H      694.371     984.760     441.268
  H      693.906     985.990     443.385
  H      696.383     986.617     445.829
  H      693.479     986.747     444.828
  H      692.994     987.942     446.871
  H      694.671     986.265     448.440
  H      693.056     984.413     448.119
  H      692.220     985.958     448.436
  P      694.438     989.815     447.864
  C      694.763     988.927     450.311
  O      693.902     989.515     449.349
  O      693.111     990.017     446.998
  O      695.448     990.912     447.745
  H      692.650     989.181     446.810
  H      694.236     988.804     451.234
  H      695.610     989.562     450.466
  H      695.092     987.972     449.958

 6  7  8  9  10  11  12  13  14  15  16  27  31  32  33  34  35 0
 6-311+G(2d,p)
 ****
 36  37 0
 6-311+G(2d,p)
 ****
 1  2  3  4  5  17  18  19  20  21  22  23  24  25 0
 3-21G
 ****
 26  28  29  30  38  39  40  41  42  43  44  45 0
 3-21G
 ****


