%nproc=1
%NoSave
%Mem=1900MB
#P OB98/GEN NMR

erre ene a

0 1
  C      800.580     -40.237     818.475
  O      799.358     -40.945     818.720
  P      798.960     -41.275     820.246
  C      796.454     -40.687     820.002
  O      797.683     -40.376     820.661
  C      795.260     -40.061     820.744
  O      795.105     -40.657     822.073
  C      795.459     -38.546     820.956
  O      794.177     -37.869     820.922
  C      795.963     -38.479     822.392
  O      795.757     -37.172     822.961
  C      795.182     -39.600     823.043
  N      795.050     -39.333     828.155
  C      794.269     -38.799     827.226
  N      794.333     -38.927     825.872
  C      795.354     -39.724     825.535
  C      796.245     -40.363     826.387
  C      796.071     -40.141     827.757
  N      796.909     -40.674     828.724
  N      797.177     -41.098     825.673
  C      796.872     -40.881     824.402
  N      795.757     -40.076     824.275
  O      800.069     -41.256     821.226
  O      798.311     -42.739     820.122
  H      794.915     -36.845     822.623
  H      798.632     -43.280     820.868
  H      793.461     -38.164     827.585
  H      797.426     -41.265     823.556
  H      794.131     -39.289     823.258
  H      797.040     -38.683     822.399
  H      796.127     -38.060     820.243
  H      794.344     -40.266     820.196
  H      796.327     -41.771     819.970
  H      796.789     -40.358     829.665
  H      797.744     -41.133     828.448
  H      796.505     -40.359     818.954
  P      794.107     -36.571     819.980
  C      793.508     -38.093     817.943
  O      794.351     -37.088     818.490
  O      794.991     -35.444     820.445
  O      792.545     -36.219     820.029
  H      791.953     -36.971     819.844
  H      793.758     -38.208     816.875
  H      792.471     -37.807     818.018
  H      793.677     -39.041     818.454
  H      800.704     -40.094     817.422
  H      801.403     -40.803     818.858
  H      800.545     -39.285     818.962

 3  4  5  6  7  8  9  10  11  12  22  25  29  30  31  32 0
 6-311+G(2d,p)
 ****
 33  36  37 0
 6-311+G(2d,p)
 ****
 1  2  13  14  15  16  17  18  19  20  21  23  24  26 0
 3-21G
 ****
 27  28  34  35  38  39  40  41  42  43  44  45  46  47  48 0
 3-21G
 ****


