%nproc=1
%NoSave
%Mem=1900MB
#P OB98/GEN NMR

erre ene a

0 1
  C       20.230    -487.694    -294.627
  O       19.496    -487.616    -293.396
  P       20.216    -487.249    -292.005
  C       19.515    -489.348    -290.704
  O       19.437    -487.926    -290.770
  C       18.939    -489.925    -289.397
  O       19.610    -489.345    -288.232
  C       17.431    -489.691    -289.186
  O       16.966    -490.814    -288.434
  C       17.417    -488.432    -288.330
  O       16.192    -488.233    -287.649
  C       18.612    -488.697    -287.420
  N       19.434    -486.202    -283.018
  C       19.064    -487.480    -283.275
  N       18.903    -488.079    -284.467
  C       19.205    -487.236    -285.477
  C       19.609    -485.912    -285.376
  C       19.713    -485.391    -284.073
  N       20.038    -484.075    -283.809
  N       19.798    -485.359    -286.625
  C       19.506    -486.325    -287.475
  N       19.146    -487.488    -286.828
  O       20.483    -485.786    -291.825
  O       21.605    -488.044    -292.053
  H       15.991    -489.031    -287.122
  H       22.325    -487.460    -291.763
  H       18.859    -488.090    -282.400
  H       19.521    -486.251    -288.547
  H       18.347    -489.384    -286.607
  H       17.580    -487.554    -288.980
  H       16.881    -489.591    -290.118
  H       19.166    -490.996    -289.383
  H       20.564    -489.643    -290.802
  H       19.994    -483.765    -282.846
  H       20.122    -483.430    -284.576
  H       18.967    -489.772    -291.556
  P       16.770    -492.263    -289.114
  C       14.499    -492.914    -288.116
  O       15.898    -493.130    -288.076
  O       18.029    -492.915    -289.585
  O       15.754    -492.000    -290.322
  H       15.811    -492.737    -290.956
  H       14.263    -491.974    -287.599
  H       14.002    -493.739    -287.593
  H       14.129    -492.866    -289.144
  H       19.564    -487.950    -295.424
  H       20.989    -488.443    -294.543
  H       20.684    -486.747    -294.832

 3  4  5  6  7  8  9  10  11  12  22  25  29  30  31  32 0
 6-311+G(2d,p)
 ****
 33  36  37 0
 6-311+G(2d,p)
 ****
 1  2  13  14  15  16  17  18  19  20  21  23  24  26 0
 3-21G
 ****
 27  28  34  35  38  39  40  41  42  43  44  45  46  47  48 0
 3-21G
 ****


