%nproc=1
%NoSave
%Mem=1900MB
#P OB98/GEN NMR

erre ene a

0 1
  C     1107.424    -692.869     146.135
  O     1106.411    -693.654     146.743
  H     1107.028    -692.502     145.167
  H     1108.304    -693.482     145.930
  H     1107.692    -692.010     146.747
  P     1106.680    -694.172     148.236
  C     1104.265    -695.114     148.177
  O     1105.617    -695.367     148.492
  C     1103.635    -696.352     147.557
  O     1103.990    -696.428     146.140
  C     1104.096    -697.657     148.171
  O     1103.478    -697.888     149.408
  C     1103.713    -698.662     147.067
  O     1102.338    -698.982     147.148
  C     1104.035    -697.821     145.797
  N     1105.335    -698.190     145.190
  C     1105.296    -698.961     144.050
  O     1104.246    -699.382     143.565
  N     1106.524    -699.285     143.512
  C     1107.734    -698.973     144.029
  O     1108.811    -699.352     143.552
  C     1107.717    -698.172     145.256
  C     1106.525    -697.814     145.776
  O     1106.711    -693.141     149.307
  O     1108.075    -694.961     148.139
  H     1102.132    -699.516     146.363
  H     1108.774    -694.425     148.545
  H     1106.520    -699.842     142.674
  H     1108.669    -697.931     145.723
  H     1106.498    -697.240     146.696
  H     1103.250    -698.007     145.036
  H     1104.291    -699.594     147.147
  H     1105.200    -697.646     148.261
  H     1102.531    -696.261     147.600
  H     1104.228    -694.287     147.448
  H     1103.728    -694.830     149.085
  P     1104.351    -698.344     150.676
  C     1102.151    -698.694     151.972
  O     1103.402    -699.245     151.640
  O     1105.097    -697.255     151.374
  O     1105.380    -699.430     150.055
  H     1106.284    -699.104     150.194
  H     1101.619    -699.373     152.606
  H     1101.587    -698.525     151.078
  H     1102.295    -697.766     152.484

 6  7  8  9  10  11  12  13  14  15  16  26  31  32  33  34  35 0
 6-311+G(2d,p)
 ****
 36  37 0
 6-311+G(2d,p)
 ****
 1  2  3  4  5  17  18  19  20  21  22  23  24  25 0
 3-21G
 ****
 27  28  29  30  38  39  40  41  42  43  44  45 0
 3-21G
 ****


