%nproc=1
%NoSave
%Mem=1900MB
#P OB98/GEN NMR

erre ene a

0 1
  C       12.535    -430.569    -798.548
  O       13.014    -430.719    -797.221
  H       11.759    -431.313    -798.731
  H       13.338    -430.730    -799.271
  H       12.108    -429.571    -798.686
  P       14.272    -429.841    -796.767
  C       14.878    -431.998    -795.457
  O       14.857    -430.569    -795.455
  C       15.463    -432.511    -794.144
  O       16.854    -432.137    -794.025
  C       14.776    -431.930    -792.913
  O       13.519    -432.528    -792.703
  C       15.818    -432.189    -791.852
  O       15.759    -433.543    -791.390
  C       17.134    -431.917    -792.631
  N       17.646    -430.574    -792.398
  C       18.628    -430.455    -791.394
  O       18.996    -431.446    -790.765
  N       19.131    -429.201    -791.127
  C       18.725    -428.172    -791.809
  N       19.268    -426.973    -791.479
  C       17.707    -428.257    -792.881
  C       17.224    -429.476    -793.126
  O       14.051    -428.368    -796.603
  O       15.377    -430.154    -797.883
  H       16.319    -433.570    -790.568
  H       15.309    -429.530    -798.622
  H       17.413    -427.374    -793.426
  H       16.474    -429.626    -793.891
  H       17.902    -432.642    -792.331
  H       15.682    -431.541    -790.983
  H       14.668    -430.830    -793.023
  H       15.397    -433.613    -794.148
  H       19.938    -426.940    -790.732
  H       15.515    -432.305    -796.298
  H       19.086    -426.114    -791.991
  H       13.881    -432.403    -795.614
  P       12.196    -431.637    -792.512
  C       10.707    -432.367    -790.526
  O       11.093    -432.618    -791.885
  O       11.759    -430.865    -793.717
  O       12.573    -430.692    -791.258
  H       13.215    -429.979    -791.533
  H        9.971    -433.083    -790.226
  H       10.298    -431.381    -790.448
  H       11.564    -432.449    -789.891

 6  7  8  9  10  11  12  13  14  15  16  26  30  31  32  33  35 0
 6-311+G(2d,p)
 ****
 37  38 0
 6-311+G(2d,p)
 ****
 1  2  3  4  5  17  18  19  20  21  22  23  24  25 0
 3-21G
 ****
 27  28  29  34  36  39  40  41  42  43  44  45  46 0
 3-21G
 ****


