%nproc=1
%NoSave
%Mem=1900MB
#P OB98/GEN NMR

erre ene a

0 1
  C      446.186    -396.568    -535.504
  O      446.387    -395.452    -536.359
  P      445.179    -394.402    -536.481
  C      446.222    -393.078    -534.485
  O      445.069    -393.677    -535.058
  C      445.839    -391.756    -533.821
  O      445.617    -390.736    -534.829
  C      444.568    -391.817    -532.988
  O      444.837    -392.341    -531.703
  C      444.144    -390.343    -532.974
  O      444.882    -389.608    -531.983
  C      444.516    -389.887    -534.392
  N      441.169    -387.199    -537.056
  C      442.023    -386.802    -536.044
  N      442.021    -385.487    -535.731
  N      442.817    -387.619    -535.401
  C      442.707    -388.905    -535.813
  C      441.891    -389.425    -536.789
  C      441.054    -388.499    -537.526
  O      440.353    -388.783    -538.493
  N      442.034    -390.781    -536.909
  C      442.970    -391.073    -536.026
  N      443.426    -389.971    -535.346
  O      443.884    -395.345    -536.538
  O      445.264    -393.470    -537.642
  H      444.564    -388.684    -531.966
  H      443.588    -395.462    -537.465
  H      440.589    -386.526    -537.525
  H      443.365    -392.062    -535.848
  H      444.879    -388.856    -534.409
  H      443.081    -390.226    -532.724
  H      441.417    -384.807    -536.167
  H      443.798    -392.415    -533.501
  H      442.636    -385.183    -534.989
  H      446.689    -391.429    -533.207
  H      446.959    -392.892    -535.265
  H      446.653    -393.764    -533.747
  P      443.608    -392.954    -530.875
  C      443.852    -395.235    -532.099
  O      443.000    -394.156    -531.747
  O      442.486    -391.813    -530.978
  O      443.920    -393.290    -529.453
  H      441.983    -391.773    -530.141
  H      443.244    -396.143    -532.196
  H      444.626    -395.405    -531.345
  H      444.323    -395.024    -533.057
  H      447.060    -397.185    -535.512
  H      445.346    -397.134    -535.848
  H      446.001    -396.225    -534.508

 3  4  5  6  7  8  9  10  11  12  23  26  30  31 0
 6-311+G(2d,p)
 ****
 33  35  36  37  38 0
 6-311+G(2d,p)
 ****
 1  2  13  14  15  16  17  18  19  20  21  22  24  25 0
 3-21G
 ****
 27  28  29  32  34  39  40  41  42  43  44  45  46  47  48  49 0
 3-21G
 ****


