%nproc=1
%NoSave
%Mem=1900MB
#P OB98/GEN NMR

erre ene a

0 1
  C     -631.137     415.148    -682.387
  O     -631.989     416.111    -681.765
  P     -633.557     415.770    -681.748
  C     -633.722     415.015    -679.267
  O     -633.793     414.634    -680.633
  C     -633.707     413.774    -678.365
  O     -632.808     412.760    -678.839
  C     -633.271     414.076    -676.939
  O     -634.354     414.636    -676.207
  C     -632.864     412.696    -676.439
  O     -634.008     411.951    -675.976
  C     -632.276     412.042    -677.699
  N     -628.070     409.380    -676.734
  C     -629.382     409.117    -676.393
  N     -629.612     407.968    -675.723
  N     -630.379     409.908    -676.685
  C     -630.004     411.017    -677.360
  C     -628.746     411.376    -677.780
  C     -627.645     410.494    -677.443
  O     -626.471     410.671    -677.741
  N     -628.761     412.550    -678.492
  C     -630.014     412.963    -678.393
  N     -630.822     412.039    -677.773
  O     -633.786     415.002    -683.135
  O     -634.428     416.972    -681.631
  H     -633.753     411.019    -675.864
  H     -634.303     415.565    -683.737
  H     -627.343     408.746    -676.473
  H     -630.392     413.895    -678.768
  H     -632.585     411.001    -677.798
  H     -632.168     412.759    -675.598
  H     -628.891     407.313    -675.467
  H     -632.407     414.749    -676.936
  H     -630.566     407.755    -675.473
  H     -634.726     413.363    -678.361
  H     -634.573     415.645    -679.003
  H     -632.818     415.614    -679.116
  P     -634.526     416.232    -676.229
  C     -636.916     416.010    -677.224
  O     -635.629     416.579    -677.340
  O     -633.149     416.735    -676.877
  O     -634.752     416.848    -674.894
  H     -632.817     417.501    -676.374
  H     -637.637     416.692    -677.676
  H     -637.185     415.837    -676.184
  H     -636.934     415.061    -677.764
  H     -630.122     415.484    -682.336
  H     -631.422     415.028    -683.411
  H     -631.228     414.211    -681.879

 3  4  5  6  7  8  9  10  11  12  23  26  30  31 0
 6-311+G(2d,p)
 ****
 33  35  36  37  38 0
 6-311+G(2d,p)
 ****
 1  2  13  14  15  16  17  18  19  20  21  22  24  25 0
 3-21G
 ****
 27  28  29  32  34  39  40  41  42  43  44  45  46  47  48  49 0
 3-21G
 ****


