%nproc=1
%NoSave
%Mem=1900MB
#P OB98/GEN NMR

erre ene a

0 1
  C      522.928     258.458     433.977
  O      524.302     258.628     433.649
  P      524.914     260.108     433.772
  C      525.340     261.867     431.895
  O      524.441     260.902     432.449
  C      525.012     262.136     430.420
  O      525.305     260.940     429.647
  C      523.562     262.532     430.159
  O      523.553     263.512     429.120
  C      522.935     261.258     429.631
  O      521.786     261.515     428.832
  C      524.129     260.622     428.885
  N      523.963     259.176     428.714
  C      523.294     258.745     427.568
  O      522.788     259.572     426.803
  N      523.153     257.396     427.347
  C      523.555     256.553     428.252
  N      523.410     255.236     427.984
  C      524.173     256.976     429.529
  C      524.362     258.284     429.682
  O      526.476     259.875     433.522
  O      524.641     260.792     435.067
  H      521.346     260.659     428.649
  H      527.006     260.509     434.028
  H      524.455     256.233     430.264
  H      524.818     258.683     430.576
  H      524.230     261.079     427.883
  H      522.629     260.610     430.474
  H      523.067     262.932     431.044
  H      525.698     262.916     430.056
  H      522.971     254.965     427.111
  H      526.351     261.471     431.955
  H      523.688     254.502     428.633
  H      525.281     262.786     432.472
  P      522.537     264.743     429.259
  C      520.231     265.294     428.254
  O      521.233     264.314     428.437
  O      523.204     265.824     428.264
  O      522.325     265.329     430.619
  H      522.700     266.654     428.304
  H      519.478     264.910     427.562
  H      520.670     266.214     427.830
  H      519.764     265.516     429.211
  H      522.656     257.431     433.852
  H      522.329     259.067     433.332
  H      522.765     258.748     434.994

 3  4  5  6  7  8  9  10  11  12  13  21  23  27  28  29  30  32 0
 6-311+G(2d,p)
 ****
 34  35 0
 6-311+G(2d,p)
 ****
 1  2  14  15  16  17  18  19  20  22  24  25  26 0
 3-21G
 ****
 31  33  36  37  38  39  40  41  42  43  44  45  46 0
 3-21G
 ****


