%nproc=1
%NoSave
%Mem=1900MB
#P OB98/GEN NMR

erre ene a

0 1
  C       65.038    -140.334     157.081
  O       64.560    -140.767     158.337
  H       65.624    -141.140     156.632
  H       65.684    -139.462     157.206
  H       64.209    -140.090     156.410
  P       63.517    -139.842     159.129
  C       61.853    -140.403     161.022
  O       63.150    -140.612     160.484
  C       61.297    -141.700     161.624
  O       60.870    -142.572     160.533
  C       62.320    -142.494     162.465
  O       61.576    -143.195     163.473
  C       62.869    -143.448     161.420
  O       63.639    -144.481     161.979
  C       61.560    -143.829     160.714
  N       61.715    -144.516     159.438
  C       61.628    -145.906     159.440
  O       61.425    -146.595     160.440
  N       61.789    -146.514     158.221
  C       62.008    -145.882     157.030
  O       62.111    -146.478     155.964
  C       62.096    -144.417     157.094
  C       61.944    -143.811     158.274
  O       62.346    -139.361     158.338
  O       64.417    -138.622     159.649
  H       64.274    -137.843     159.077
  H       63.042    -145.122     162.420
  H       61.725    -147.519     158.201
  H       62.281    -143.882     156.171
  H       61.994    -142.730     158.351
  H       60.943    -144.440     161.379
  H       63.538    -142.913     160.740
  H       63.070    -141.859     162.941
  H       60.402    -141.462     162.212
  H       61.199    -140.063     160.210
  H       61.903    -139.624     161.787
  P       61.844    -143.027     165.046
  C       60.308    -142.886     167.127
  O       60.500    -143.434     165.827
  O       62.377    -141.685     165.431
  O       62.876    -144.189     165.428
  H       63.395    -143.921     166.209
  H       59.380    -143.237     167.529
  H       60.288    -141.818     167.065
  H       61.111    -143.191     167.765

 6  7  8  9  10  11  12  13  14  15  16  27  31  32  33  34  35 0
 6-311+G(2d,p)
 ****
 36  37 0
 6-311+G(2d,p)
 ****
 1  2  3  4  5  17  18  19  20  21  22  23  24  25 0
 3-21G
 ****
 26  28  29  30  38  39  40  41  42  43  44  45 0
 3-21G
 ****


