%nproc=1
%NoSave
%Mem=1900MB
#P OB98/GEN NMR

erre ene a

0 1
  C      282.774     -70.366      93.427
  O      282.480     -69.678      94.631
  H      282.828     -69.634      92.617
  H      281.983     -71.084      93.204
  H      283.736     -70.880      93.499
  P      282.495     -70.497      96.009
  C      280.087     -70.067      96.832
  O      281.469     -69.762      97.001
  C      279.238     -68.940      97.422
  O      279.324     -68.950      98.862
  C      279.684     -67.542      96.994
  O      279.269     -67.261      95.670
  C      279.024     -66.685      98.061
  O      277.640     -66.462      97.756
  C      279.178     -67.580      99.317
  N      280.300     -67.179     100.162
  C      280.173     -65.973     100.842
  O      279.182     -65.243     100.730
  N      281.226     -65.619     101.636
  C      282.418     -66.279     101.728
  O      283.368     -65.864     102.385
  C      282.516     -67.526     100.965
  C      281.467     -67.917     100.233
  O      283.844     -70.768      96.587
  O      281.730     -71.859      95.647
  H      277.319     -65.802      98.399
  H      282.378     -72.583      95.566
  H      281.150     -64.738     102.132
  H      283.440     -68.085     101.024
  H      281.527     -68.835      99.661
  H      278.261     -67.549      99.916
  H      279.496     -65.707      98.160
  H      280.775     -67.445      97.084
  H      278.189     -69.113      97.147
  H      279.865     -70.997      97.360
  H      279.872     -70.193      95.766
  P      280.306     -66.617      94.630
  C      278.137     -66.099      93.327
  O      279.534     -66.398      93.242
  O      281.622     -67.308      94.525
  O      280.500     -65.120      95.169
  H      281.446     -64.974      95.393
  H      277.738     -65.976      92.342
  H      277.999     -65.196      93.883
  H      277.630     -66.902      93.819

 6  7  8  9  10  11  12  13  14  15  16  26  31  32  33  34  35 0
 6-311+G(2d,p)
 ****
 36  37 0
 6-311+G(2d,p)
 ****
 1  2  3  4  5  17  18  19  20  21  22  23  24  25 0
 3-21G
 ****
 27  28  29  30  38  39  40  41  42  43  44  45 0
 3-21G
 ****


