%nproc=1
%NoSave
%Mem=1900MB
#P OB98/GEN NMR

erre ene a

0 1
  C      270.759     136.037    -176.093
  O      271.514     137.202    -175.760
  P      271.255     138.553    -176.586
  C      268.842     139.238    -175.987
  O      270.229     139.462    -175.750
  C      268.091     140.562    -176.097
  O      266.814     140.400    -176.745
  C      267.781     141.193    -174.749
  O      268.946     141.760    -174.174
  C      266.690     142.185    -175.125
  O      267.254     143.397    -175.649
  C      265.933     141.429    -176.238
  N      264.662     140.874    -175.798
  C      263.651     141.802    -175.525
  O      263.869     143.008    -175.624
  N      262.419     141.333    -175.133
  C      262.222     140.058    -175.014
  N      260.983     139.651    -174.627
  C      263.265     139.048    -175.281
  C      264.452     139.522    -175.659
  O      270.915     138.372    -178.029
  O      272.640     139.347    -176.410
  H      267.701     143.835    -174.895
  H      272.786     139.903    -177.201
  H      263.049     137.995    -175.176
  H      265.275     138.852    -175.871
  H      265.730     142.101    -177.084
  H      266.077     142.461    -174.262
  H      267.370     140.431    -174.070
  H      268.700     141.253    -176.699
  H      260.287     140.363    -174.438
  H      268.426     138.637    -175.173
  H      260.715     138.680    -174.555
  H      268.735     138.645    -176.900
  P      269.208     141.505    -172.614
  C      269.113     138.932    -172.304
  O      269.923     140.081    -172.466
  O      267.733     141.238    -172.042
  O      269.869     142.637    -171.895
  H      267.667     141.585    -171.132
  H      269.714     138.047    -172.533
  H      268.249     138.955    -172.971
  H      268.773     138.867    -171.267
  H      271.049     135.229    -175.454
  H      270.945     135.770    -177.112
  H      269.716     136.238    -175.962

 3  4  5  6  7  8  9  10  11  12  13  23  27  28  29  30  32 0
 6-311+G(2d,p)
 ****
 34  35 0
 6-311+G(2d,p)
 ****
 1  2  14  15  16  17  18  19  20  21  22  24  25  26 0
 3-21G
 ****
 31  33  36  37  38  39  40  41  42  43  44  45  46 0
 3-21G
 ****


