%nproc=1
%NoSave
%Mem=1900MB
#P OB98/GEN NMR

erre ene a

0 1
  C       86.864    -383.221    -667.043
  O       87.744    -384.105    -666.367
  P       87.193    -385.572    -666.020
  C       87.440    -385.010    -663.486
  O       86.591    -385.474    -664.540
  C       86.686    -384.019    -662.593
  O       85.867    -383.151    -663.400
  C       85.735    -384.674    -661.611
  O       86.444    -385.214    -660.507
  C       84.825    -383.503    -661.248
  O       85.390    -382.722    -660.176
  C       84.788    -382.689    -662.564
  N       83.509    -382.775    -663.244
  C       82.441    -382.070    -662.657
  O       82.644    -381.441    -661.610
  N       81.211    -382.125    -663.240
  C       81.042    -382.833    -664.320
  N       79.794    -382.860    -664.855
  C       82.112    -383.617    -664.952
  C       83.313    -383.551    -664.376
  O       88.539    -386.428    -665.825
  O       86.290    -386.164    -667.053
  H       85.586    -383.362    -659.461
  H       88.380    -387.376    -666.016
  H       81.927    -384.185    -665.852
  H       84.166    -384.082    -664.766
  H       84.996    -381.627    -662.354
  H       83.844    -383.846    -660.918
  H       85.142    -385.461    -662.100
  H       87.423    -383.401    -662.070
  H       79.072    -382.321    -664.395
  H       88.308    -384.506    -663.915
  H       79.560    -383.357    -665.705
  H       87.789    -385.875    -662.905
  P       86.357    -386.790    -660.259
  C       86.195    -386.328    -657.733
  O       85.582    -386.935    -658.857
  O       87.866    -387.167    -659.845
  O       85.847    -387.629    -661.382
  H       87.949    -388.128    -659.763
  H       85.513    -386.370    -656.893
  H       86.447    -385.286    -657.946
  H       87.113    -386.889    -657.471
  H       87.357    -382.286    -667.210
  H       85.990    -383.062    -666.446
  H       86.582    -383.648    -667.983

 3  4  5  6  7  8  9  10  11  12  13  21  23  27  28  29  30  32 0
 6-311+G(2d,p)
 ****
 34  35 0
 6-311+G(2d,p)
 ****
 1  2  14  15  16  17  18  19  20  22  24  25  26 0
 3-21G
 ****
 31  33  36  37  38  39  40  41  42  43  44  45  46 0
 3-21G
 ****


