%nproc=1
%NoSave
%Mem=1900MB
#P OB98/GEN NMR

erre ene a

0 1
  C      185.336     -10.115    -208.682
  O      186.458     -10.936    -208.417
  P      187.730     -10.766    -209.387
  C      190.272     -11.329    -209.182
  O      188.999     -11.286    -208.558
  C      191.362     -11.457    -208.116
  O      191.435     -10.255    -207.325
  C      191.145     -12.601    -207.133
  O      191.582     -13.826    -207.692
  C      191.973     -12.137    -205.940
  O      193.368     -12.433    -206.138
  C      191.724     -10.622    -205.949
  N      190.581      -8.711    -201.412
  C      191.785      -9.183    -201.899
  N      192.846      -9.089    -201.069
  N      191.935      -9.696    -203.091
  C      190.786      -9.738    -203.805
  C      189.533      -9.317    -203.428
  C      189.391      -8.704    -202.127
  O      188.371      -8.182    -201.687
  N      188.608      -9.543    -204.414
  C      189.310     -10.071    -205.396
  N      190.640     -10.191    -205.086
  O      187.926      -9.182    -209.451
  O      187.584     -11.385    -210.741
  H      193.642     -12.118    -207.018
  H      187.529      -8.817    -210.265
  H      190.529      -8.310    -200.492
  H      188.907     -10.361    -206.354
  H      192.614     -10.056    -205.646
  H      191.676     -12.636    -205.014
  H      192.801      -8.728    -200.130
  H      190.088     -12.661    -206.846
  H      193.737      -9.434    -201.408
  H      192.324     -11.574    -208.632
  H      190.428     -10.407    -209.747
  H      190.305     -12.178    -209.873
  P      191.549     -15.122    -206.748
  C      190.569     -17.519    -206.931
  O      190.630     -16.214    -207.473
  O      190.668     -14.646    -205.498
  O      192.893     -15.604    -206.313
  H      191.014     -15.053    -204.681
  H      189.590     -17.947    -207.158
  H      190.713     -17.515    -205.847
  H      191.342     -18.136    -207.396
  H      184.565     -10.325    -207.971
  H      184.974     -10.313    -209.669
  H      185.621      -9.086    -208.606

 3  4  5  6  7  8  9  10  11  12  23  26  30  31 0
 6-311+G(2d,p)
 ****
 33  35  36  37  38 0
 6-311+G(2d,p)
 ****
 1  2  13  14  15  16  17  18  19  20  21  22  24  25 0
 3-21G
 ****
 27  28  29  32  34  39  40  41  42  43  44  45  46  47  48  49 0
 3-21G
 ****


