%nproc=1
%NoSave
%Mem=1900MB
#P OB98/GEN NMR

erre ene a

0 1
  C      181.325    -481.812    -609.666
  O      182.151    -482.929    -609.404
  H      181.662    -481.297    -610.567
  H      180.302    -482.165    -609.823
  H      181.335    -481.125    -608.817
  P      183.705    -482.631    -609.131
  C      184.494    -484.561    -610.686
  O      184.483    -483.161    -610.429
  C      184.225    -484.817    -612.162
  O      182.958    -484.233    -612.546
  C      185.260    -484.200    -613.111
  O      186.418    -485.006    -613.218
  C      184.473    -484.181    -614.410
  O      184.435    -485.510    -614.971
  C      183.076    -483.778    -613.927
  N      181.322    -479.898    -616.771
  C      181.433    -481.220    -617.021
  N      181.918    -482.187    -616.206
  C      182.304    -481.667    -615.036
  C      182.259    -480.346    -614.639
  C      181.728    -479.430    -615.572
  N      181.623    -478.078    -615.325
  N      182.782    -480.187    -613.367
  C      183.103    -481.407    -612.993
  N      182.847    -482.343    -613.969
  O      184.104    -483.696    -608.004
  O      184.035    -481.229    -608.731
  H      185.356    -485.829    -615.000
  H      184.907    -483.409    -607.539
  H      181.099    -481.544    -618.000
  H      183.527    -481.671    -612.031
  H      182.273    -484.251    -614.497
  H      184.906    -483.528    -615.157
  H      185.509    -483.168    -612.818
  H      184.150    -485.906    -612.317
  H      183.712    -485.041    -610.086
  H      181.403    -477.495    -616.113
  H      182.063    -477.700    -614.492
  H      185.471    -484.972    -610.399
  P      187.800    -484.388    -612.672
  C      188.906    -485.101    -614.922
  O      188.672    -484.060    -613.971
  O      188.539    -485.660    -612.033
  O      187.639    -483.274    -611.692
  H      189.161    -485.387    -611.328
  H      189.501    -484.722    -615.726
  H      187.970    -485.451    -615.305
  H      189.422    -485.909    -614.447

 6  7  8  9  10  11  12  13  14  15  25  28  32  33  34  35 0
 6-311+G(2d,p)
 ****
 36  39  40 0
 6-311+G(2d,p)
 ****
 1  2  3  4  5  16  17  18  19  20  21  22  23  24 0
 3-21G
 ****
 26  27  29  30  31  37  38  41  42  43  44  45  46  47 0
 3-21G
 ****
 48 0
 3-21G
 ****


