%nproc=1
%NoSave
%Mem=1900MB
#P OB98/GEN NMR

erre ene a

0 1
  C       16.111     350.109     100.186
  O       14.951     350.688     100.798
  P       14.822     352.249     101.151
  C       13.430     351.971     103.316
  O       13.465     352.462     101.981
  C       12.080     352.276     103.972
  O       11.888     353.706     104.082
  C       10.862     351.791     103.205
  O       10.693     350.389     103.282
  C        9.748     352.596     103.874
  O        9.289     351.954     105.074
  C       10.462     353.915     104.225
  N       10.016     355.035     103.418
  C        8.889     355.728     103.873
  O        8.276     355.335     104.866
  N        8.477     356.840     103.179
  C        9.069     357.166     102.072
  N        8.628     358.287     101.440
  C       10.172     356.382     101.486
  C       10.591     355.343     102.204
  O       14.950     353.150      99.968
  O       15.977     352.535     102.222
  H       16.239     353.473     102.176
  H        8.834     351.134     104.800
  H       10.611     356.664     100.540
  H       11.409     354.720     101.855
  H       10.315     354.156     105.285
  H        8.879     352.720     103.223
  H       10.950     352.098     102.155
  H       12.090     351.847     104.984
  H        7.876     358.805     101.874
  H       14.223     352.467     103.888
  H        9.034     358.640     100.584
  H       13.628     350.895     103.309
  P       10.024     349.665     102.016
  C        8.551     347.751     102.967
  O        9.791     348.127     102.400
  O       11.209     349.616     100.940
  O        8.821     350.365     101.470
  H       10.848     349.789     100.050
  H        8.357     346.702     102.722
  H        7.727     348.361     102.583
  H        8.603     347.854     104.052
  H       15.957     349.059     100.053
  H       16.962     350.268     100.814
  H       16.279     350.569      99.234

 3  4  5  6  7  8  9  10  11  12  13  24  27  28  29  30  32 0
 6-311+G(2d,p)
 ****
 34  35 0
 6-311+G(2d,p)
 ****
 1  2  14  15  16  17  18  19  20  21  22  23  25  26 0
 3-21G
 ****
 31  33  36  37  38  39  40  41  42  43  44  45  46 0
 3-21G
 ****


