%nproc=1
%NoSave
%Mem=1900MB
#P OB98/GEN NMR

erre ene a

0 1
  C      110.646     206.768    -243.132
  O      110.559     207.374    -241.857
  H      110.529     205.687    -243.012
  H      111.624     206.964    -243.577
  H      109.854     207.134    -243.790
  P      110.600     208.974    -241.757
  C      108.045     209.182    -241.959
  O      109.185     209.433    -241.151
  C      107.088     210.372    -241.927
  O      106.032     210.149    -242.895
  C      106.433     210.599    -240.559
  O      106.323     212.005    -240.337
  C      105.051     209.999    -240.729
  O      104.092     210.591    -239.852
  C      104.771     210.263    -242.207
  N      100.041     208.543    -241.768
  C      100.680     209.574    -241.106
  N       99.964     210.234    -240.171
  N      101.916     209.928    -241.341
  C      102.511     209.192    -242.313
  C      101.988     208.148    -243.038
  C      100.621     207.757    -242.760
  O      100.007     206.845    -243.301
  N      102.913     207.639    -243.915
  C      103.992     208.372    -243.718
  N      103.803     209.322    -242.749
  O      110.994     209.685    -243.012
  O      111.622     209.262    -240.563
  H      103.231     210.157    -240.034
  H      112.500     209.506    -240.912
  H       99.091     208.307    -241.541
  H      104.933     208.254    -244.240
  H      104.369     211.269    -242.382
  H      105.087     208.922    -240.521
  H       99.001     210.029    -239.949
  H      106.989     210.133    -239.738
  H      100.405     211.010    -239.690
  H      107.635     211.265    -242.254
  H      107.538     208.291    -241.571
  H      108.365     208.985    -242.989
  P      107.466     212.745    -239.490
  C      108.936     212.906    -241.601
  O      108.361     213.609    -240.503
  O      108.231     211.880    -238.543
  O      106.644     213.879    -238.703
  H      107.093     214.060    -237.853
  H      109.506     213.585    -242.200
  H      108.158     212.473    -242.194
  H      109.576     212.132    -241.233

 6  7  8  9  10  11  12  13  14  15  26  29  33  34 0
 6-311+G(2d,p)
 ****
 36  38  39  40  41 0
 6-311+G(2d,p)
 ****
 1  2  3  4  5  16  17  18  19  20  21  22  23  24  25 0
 3-21G
 ****
 27  28  30  31  32  35  37  42  43  44  45  46  47 0
 3-21G
 ****
 48  49 0
 3-21G
 ****


