%nproc=1
%NoSave
%Mem=1900MB
#P OB98/GEN NMR

erre ene a

0 1
  C      207.239     550.722    -238.327
  O      208.202     551.759    -238.329
  H      206.312     551.064    -238.803
  H      207.634     549.875    -238.904
  H      207.043     550.389    -237.305
  P      207.817     553.098    -237.528
  C      207.029     554.963    -239.158
  O      206.675     553.817    -238.393
  C      207.574     554.523    -240.519
  O      206.661     553.597    -241.145
  C      207.754     555.657    -241.517
  O      208.967     556.374    -241.311
  C      207.797     554.882    -242.825
  O      209.088     554.263    -242.978
  C      206.723     553.809    -242.581
  N      203.929     554.894    -246.744
  C      205.229     554.569    -246.590
  N      205.902     554.293    -245.451
  C      205.082     554.391    -244.385
  C      203.745     554.731    -244.388
  C      203.145     554.978    -245.639
  N      201.832     555.337    -245.796
  N      203.242     554.767    -243.091
  C      204.263     554.429    -242.339
  N      205.399     554.205    -243.064
  O      209.095     554.043    -237.751
  O      207.487     552.916    -236.080
  H      209.713     554.972    -243.223
  H      209.122     554.739    -237.064
  H      205.814     554.505    -247.506
  H      204.237     554.333    -241.256
  H      206.972     552.850    -243.048
  H      207.636     555.503    -243.701
  H      206.893     556.335    -241.533
  H      208.520     553.994    -240.347
  H      207.803     555.522    -238.622
  H      201.553     555.670    -246.711
  H      201.284     555.548    -244.977
  H      206.141     555.597    -239.294
  P      209.022     557.894    -241.821
  C      210.295     558.170    -244.075
  O      209.076     557.816    -243.423
  O      210.499     558.358    -241.414
  O      207.963     558.787    -241.253
  H      210.538     559.326    -241.288
  H      210.176     558.069    -245.133
  H      211.079     557.523    -243.741
  H      210.544     559.184    -243.840

 6  7  8  9  10  11  12  13  14  15  25  28  32  33  34  35 0
 6-311+G(2d,p)
 ****
 36  39  40 0
 6-311+G(2d,p)
 ****
 1  2  3  4  5  16  17  18  19  20  21  22  23  24 0
 3-21G
 ****
 26  27  29  30  31  37  38  41  42  43  44  45  46  47 0
 3-21G
 ****
 48 0
 3-21G
 ****


