%nproc=1
%NoSave
%Mem=1900MB
#P OB98/GEN NMR

erre ene a

0 1
  C      -50.527    -899.131     234.656
  O      -49.687    -898.021     234.413
  P      -49.424    -897.581     232.904
  C      -48.290    -895.561     234.092
  O      -48.331    -896.401     232.947
  C      -47.184    -894.511     233.953
  O      -47.113    -894.041     232.599
  C      -47.412    -893.271     234.800
  O      -47.010    -893.461     236.158
  C      -46.479    -892.291     234.116
  O      -45.114    -892.501     234.540
  C      -46.650    -892.651     232.642
  N      -47.153    -888.521     229.746
  C      -46.024    -889.231     230.122
  N      -44.836    -888.691     229.708
  N      -46.014    -890.311     230.813
  C      -47.264    -890.721     231.166
  C      -48.488    -890.111     230.885
  C      -48.457    -888.891     230.108
  O      -49.437    -888.211     229.811
  N      -49.545    -890.831     231.401
  C      -48.980    -891.841     232.020
  N      -47.607    -891.811     231.953
  O      -50.764    -896.821     232.485
  O      -49.097    -898.711     231.970
  H      -45.097    -892.451     235.508
  H      -50.828    -896.741     231.506
  H      -47.094    -887.671     229.216
  H      -49.521    -892.621     232.539
  H      -45.686    -892.611     232.086
  H      -46.707    -891.241     234.341
  H      -44.759    -887.811     229.216
  H      -48.433    -892.901     234.740
  H      -43.967    -889.161     229.995
  H      -46.234    -894.991     234.203
  H      -48.117    -896.161     234.986
  H      -49.277    -895.061     234.202
  P      -47.758    -892.581     237.289
  C      -46.695    -893.841     239.285
  O      -46.824    -892.631     238.573
  O      -49.017    -893.501     237.670
  O      -48.178    -891.231     236.796
  H      -49.754    -892.951     237.990
  H      -45.826    -893.791     239.950
  H      -46.531    -894.691     238.575
  H      -47.588    -894.031     239.884
  H      -50.602    -899.297     235.710
  H      -50.115    -900.000     234.187
  H      -51.500    -898.937     234.255

 3  4  5  6  7  8  9  10  11  12  23  26  30  31 0
 6-311+G(2d,p)
 ****
 33  35  36  37  38 0
 6-311+G(2d,p)
 ****
 1  2  13  14  15  16  17  18  19  20  21  22  24  25 0
 3-21G
 ****
 27  28  29  32  34  39  40  41  42  43  44  45  46  47  48  49 0
 3-21G
 ****


