%nproc=1
%NoSave
%Mem=1900MB
#P OB98/GEN NMR

erre ene a

0 1
  C       31.267      31.292     129.736
  O       32.336      32.086     130.201
  H       30.695      31.869     129.006
  H       30.610      31.030     130.569
  H       31.631      30.382     129.254
  P       33.514      31.388     131.030
  C       33.836      30.559     133.452
  O       32.914      30.996     132.465
  C       33.111      29.818     134.583
  O       32.135      30.710     135.180
  C       32.340      28.603     134.053
  O       32.205      27.583     135.038
  C       30.968      29.184     133.751
  O       29.934      28.200     133.736
  C       30.823      30.215     134.868
  N       26.463      32.670     135.840
  C       26.897      31.445     136.306
  N       26.058      30.789     137.143
  N       28.035      30.901     135.964
  C       28.736      31.635     135.067
  C       28.401      32.850     134.515
  C       27.153      33.458     134.928
  O       26.711      34.530     134.529
  N       29.360      33.282     133.633
  C       30.270      32.330     133.647
  N       29.949      31.320     134.520
  O       34.496      32.603     131.386
  O       34.239      30.286     130.319
  H       30.044      27.674     132.922
  H       35.392      32.271     131.574
  H       25.591      33.056     136.158
  H       31.180      32.330     133.060
  H       30.417      29.748     135.775
  H       30.998      29.635     132.756
  H       25.101      31.080     137.270
  H       32.789      28.177     133.160
  H       26.212      29.782     137.239
  H       33.821      29.550     135.373
  H       34.338      31.450     133.837
  H       34.601      29.924     133.004
  P       33.440      26.596     135.292
  C       34.633      24.645     133.960
  O       33.672      25.676     134.008
  O       32.893      25.580     136.397
  O       34.696      27.280     135.734
  H       33.397      25.676     137.226
  H       34.601      24.172     133.001
  H       34.420      23.923     134.721
  H       35.607      25.057     134.122

 6  7  8  9  10  11  12  13  14  15  26  29  33  34 0
 6-311+G(2d,p)
 ****
 36  38  39  40  41 0
 6-311+G(2d,p)
 ****
 1  2  3  4  5  16  17  18  19  20  21  22  23  24  25 0
 3-21G
 ****
 27  28  30  31  32  35  37  42  43  44  45  46  47 0
 3-21G
 ****
 48  49 0
 3-21G
 ****


