%nproc=1
%NoSave
%Mem=1900MB
#P OB98/GEN NMR

erre ene a

0 1
  C     -904.510    1134.249     520.405
  O     -903.886    1135.355     519.736
  P     -904.593    1135.978     518.444
  C     -903.464    1134.606     516.555
  O     -903.581    1135.879     517.205
  C     -903.345    1134.782     515.046
  O     -904.583    1135.322     514.488
  C     -902.277    1135.791     514.630
  O     -900.936    1135.399     514.856
  C     -902.674    1136.145     513.225
  O     -902.219    1135.188     512.283
  C     -904.228    1136.099     513.316
  N     -904.844    1137.437     513.367
  C     -905.086    1138.038     512.149
  O     -904.808    1137.520     511.060
  N     -905.659    1139.287     512.214
  C     -905.961    1139.981     513.335
  O     -906.447    1141.098     513.338
  C     -905.646    1139.293     514.603
  C     -905.094    1138.077     514.572
  O     -905.227    1137.327     518.634
  O     -905.708    1134.898     518.073
  H     -902.615    1134.324     512.520
  H     -906.517    1135.374     517.814
  H     -905.871    1139.737     511.327
  H     -905.871    1139.828     515.526
  H     -904.862    1137.559     515.493
  H     -904.653    1135.578     512.447
  H     -902.274    1137.122     512.924
  H     -902.427    1136.699     515.253
  H     -903.177    1133.807     514.577
  H     -904.348    1133.982     516.802
  H     -902.599    1134.074     516.964
  P     -899.990    1136.072     515.959
  C     -898.122    1136.096     514.152
  O     -898.468    1135.868     515.511
  O     -900.315    1135.806     517.395
  O     -900.214    1137.642     515.659
  H     -900.152    1138.120     516.509
  H     -897.059    1135.901     514.010
  H     -898.328    1137.160     513.883
  H     -898.692    1135.419     513.498
  H     -903.912    1133.955     521.243
  H     -904.601    1133.427     519.726
  H     -905.482    1134.540     520.745

 3  4  5  6  7  8  9  10  11  12  13  23  28  29  30  31  32 0
 6-311+G(2d,p)
 ****
 33  34 0
 6-311+G(2d,p)
 ****
 1  2  14  15  16  17  18  19  20  21  22  24  25  26  27 0
 3-21G
 ****
 35  36  37  38  39  40  41  42  43  44  45 0
 3-21G
 ****


