%nproc=1
%NoSave
%Mem=1900MB
#P OB98/GEN NMR

erre ene a

0 1
  C      -91.737     220.480      15.128
  O      -91.350     219.400      15.952
  H      -91.034     220.551      14.293
  H      -91.704     221.416      15.691
  H      -92.742     220.323      14.727
  P      -92.291     218.989      17.182
  C      -90.392     219.804      18.723
  O      -91.330     218.770      18.448
  C      -89.860     219.656      20.146
  O      -88.941     220.730      20.451
  C      -90.942     219.717      21.219
  O      -91.671     218.506      21.270
  C      -90.097     220.020      22.448
  O      -89.462     218.829      22.943
  C      -89.044     220.996      21.869
  N      -89.374     222.400      22.120
  C      -89.086     222.879      23.394
  O      -88.587     222.187      24.278
  N      -89.436     224.183      23.633
  C      -90.112     224.999      22.771
  O      -90.597     226.077      23.103
  C      -90.323     224.464      21.417
  C      -89.963     223.203      21.162
  O      -93.254     217.880      16.921
  O      -93.052     220.353      17.544
  H      -93.953     220.328      17.170
  H      -90.151     218.135      22.958
  H      -89.275     224.527      24.569
  H      -90.798     225.104      20.684
  H      -90.137     222.777      20.180
  H      -88.057     220.794      22.303
  H      -90.689     220.431      23.268
  H      -91.610     220.566      21.031
  H      -89.306     218.710      20.207
  H      -90.899     220.770      18.622
  H      -89.577     219.751      17.994
  P      -93.258     218.503      21.474
  C      -93.312     218.868      24.010
  O      -93.569     217.959      22.949
  O      -94.033     217.831      20.389
  O      -93.646     220.055      21.573
  H      -94.351     220.250      20.925
  H      -93.553     218.404      24.944
  H      -93.912     219.745      23.882
  H      -92.277     219.140      24.004

 6  7  8  9  10  11  12  13  14  15  16  27  31  32  33  34  35 0
 6-311+G(2d,p)
 ****
 36  37 0
 6-311+G(2d,p)
 ****
 1  2  3  4  5  17  18  19  20  21  22  23  24  25 0
 3-21G
 ****
 26  28  29  30  38  39  40  41  42  43  44  45 0
 3-21G
 ****


