%nproc=1
%NoSave
%Mem=1900MB
#P OB98/GEN NMR

erre ene a

0 1
  C     -112.860    -395.371    -897.800
  O     -111.480    -395.221    -898.050
  H     -113.029    -396.126    -897.030
  H     -113.263    -394.414    -897.450
  H     -113.388    -395.651    -898.720
  P     -110.698    -396.516    -898.590
  C     -110.569    -398.997    -897.830
  O     -110.966    -397.674    -897.510
  C     -109.915    -399.643    -896.610
  O     -110.722    -399.415    -895.420
  C     -109.757    -401.158    -896.710
  O     -108.624    -401.531    -897.480
  C     -109.580    -401.526    -895.250
  O     -108.239    -401.203    -894.830
  C     -110.580    -400.576    -894.570
  N     -114.549    -401.011    -891.350
  C     -113.367    -400.355    -891.250
  N     -112.368    -400.286    -892.150
  C     -112.665    -400.999    -893.250
  C     -113.837    -401.729    -893.490
  C     -114.801    -401.707    -892.480
  N     -115.994    -402.386    -892.580
  N     -113.758    -402.350    -894.720
  C     -112.601    -401.978    -895.230
  N     -111.893    -401.175    -894.370
  O     -109.159    -396.146    -898.350
  O     -110.979    -396.902    -900.000
  H     -108.112    -400.248    -895.000
  H     -108.591    -396.699    -898.920
  H     -113.216    -399.798    -890.320
  H     -112.223    -402.284    -896.200
  H     -110.234    -400.234    -893.590
  H     -109.739    -402.583    -895.050
  H     -110.681    -401.632    -897.100
  H     -108.927    -399.161    -896.450
  H     -109.849    -398.975    -898.640
  H     -116.540    -402.462    -891.720
  H     -116.129    -403.025    -893.350
  H     -111.448    -399.575    -898.140
  P     -108.622    -402.999    -898.110
  C     -108.208    -405.397    -897.170
  O     -108.387    -404.007    -896.880
  O     -107.226    -403.056    -898.900
  O     -109.787    -403.318    -899.000
  H     -107.270    -403.686    -899.650
  H     -108.064    -405.936    -896.257
  H     -107.351    -405.523    -897.798
  H     -109.076    -405.771    -897.672

 6  7  8  9  10  11  12  13  14  15  25  28  32  33  34  35 0
 6-311+G(2d,p)
 ****
 36  39  40 0
 6-311+G(2d,p)
 ****
 1  2  3  4  5  16  17  18  19  20  21  22  23  24 0
 3-21G
 ****
 26  27  29  30  31  37  38  41  42  43  44  45  46  47 0
 3-21G
 ****
 48 0
 3-21G
 ****


