%nproc=1
%NoSave
%Mem=1900MB
#P OB98/GEN NMR

erre ene a

0 1
  C     -583.225     282.418     346.796
  O     -582.633     283.501     347.485
  P     -583.324     284.089     348.803
  C     -584.277     286.150     347.585
  O     -584.580     284.974     348.333
  C     -585.395     287.187     347.746
  O     -586.591     286.746     347.058
  C     -585.820     287.417     349.196
  O     -584.872     288.222     349.872
  C     -587.184     288.059     348.995
  O     -587.047     289.462     348.710
  C     -587.716     287.313     347.762
  N     -591.849     284.762     346.173
  C     -591.230     285.868     345.707
  N     -590.153     286.513     346.204
  C     -589.728     285.913     347.327
  C     -590.277     284.805     347.954
  C     -591.374     284.202     347.316
  N     -591.974     283.034     347.756
  N     -589.578     284.506     349.105
  C     -588.645     285.423     349.183
  N     -588.652     286.255     348.102
  O     -582.405     284.766     349.768
  O     -584.021     282.812     349.474
  H     -586.723     289.894     349.525
  H     -583.639     282.675     350.362
  H     -591.648     286.289     344.796
  H     -587.926     285.515     349.988
  H     -588.225     287.982     347.061
  H     -587.825     287.972     349.880
  H     -585.941     286.455     349.706
  H     -585.055     288.125     347.285
  H     -584.178     285.881     346.531
  H     -592.657     282.618     347.137
  H     -591.459     282.442     348.409
  H     -583.326     286.562     347.934
  P     -584.627     288.008     351.438
  C     -585.876     289.824     352.751
  O     -585.938     288.522     352.196
  O     -583.333     288.548     351.964
  O     -584.712     286.416     351.621
  H     -584.115     286.139     352.335
  H     -585.316     289.800     353.683
  H     -586.898     290.167     352.960
  H     -585.399     290.528     352.058
  H     -582.625     282.165     345.947
  H     -584.206     282.696     346.470
  H     -583.292     281.573     347.450

 3  4  5  6  7  8  9  10  11  12  22  25  29  30  31  32 0
 6-311+G(2d,p)
 ****
 33  36  37 0
 6-311+G(2d,p)
 ****
 1  2  13  14  15  16  17  18  19  20  21  23  24  26 0
 3-21G
 ****
 27  28  34  35  38  39  40  41  42  43  44  45  46  47  48 0
 3-21G
 ****


