%nproc=1
%NoSave
%Mem=1900MB
#P OB98/GEN NMR

erre ene a

0 1
  C        7.105     -97.813      69.443
  O        5.853     -98.393      69.138
  H        6.950     -96.981      70.134
  H        7.559     -97.426      68.527
  H        7.772     -98.542      69.910
  P        5.862     -99.850      68.470
  C        3.727     -99.615      67.014
  O        4.331    -100.217      68.149
  C        2.224     -99.443      67.238
  O        2.022     -98.625      68.431
  C        1.488     -98.759      66.072
  O        0.189     -99.351      65.936
  C        1.311     -97.339      66.574
  O        0.231     -96.670      65.934
  C        1.091     -97.590      68.063
  N       -1.205     -93.387      69.566
  C       -1.710     -94.518      68.957
  N       -3.025     -94.511      68.639
  N       -0.989     -95.570      68.674
  C        0.305     -95.455      69.063
  C        0.929     -94.391      69.669
  C        0.122     -93.224      69.961
  O        0.516     -92.186      70.479
  N        2.267     -94.642      69.843
  C        2.453     -95.844      69.323
  N        1.291     -96.377      68.836
  O        6.224    -100.799      69.709
  O        6.813    -100.029      67.335
  H        0.062     -95.832      66.413
  H        7.185    -100.968      69.726
  H       -1.801     -92.597      69.746
  H        3.401     -96.358      69.259
  H        0.077     -97.945      68.284
  H        2.228     -96.763      66.401
  H       -3.651     -93.751      68.850
  H        2.021     -98.813      65.117
  H       -3.417     -95.349      68.227
  H        1.786    -100.426      67.448
  H        3.885    -100.253      66.139
  H        4.197     -98.643      66.828
  P       -0.039    -100.404      64.748
  C       -2.394     -99.772      63.837
  O       -1.613    -100.680      64.601
  O        0.517    -101.772      65.367
  O        0.669    -100.049      63.482
  H        0.928    -102.309      64.664
  H       -3.415    -100.093      63.836
  H       -2.027     -99.744      62.832
  H       -2.328     -98.795      64.268

 6  7  8  9  10  11  12  13  14  15  26  29  33  34 0
 6-311+G(2d,p)
 ****
 36  38  39  40  41 0
 6-311+G(2d,p)
 ****
 1  2  3  4  5  16  17  18  19  20  21  22  23  24  25 0
 3-21G
 ****
 27  28  30  31  32  35  37  42  43  44  45  46  47 0
 3-21G
 ****
 48  49 0
 3-21G
 ****


