%nproc=1
%NoSave
%Mem=1900MB
#P OB98/GEN NMR

erre ene a

0 1
  C      -89.782    -877.034    -584.674
  O      -89.031    -877.603    -585.724
  P      -89.744    -878.380    -586.929
  C      -89.017    -876.885    -588.887
  O      -90.102    -877.308    -588.068
  C      -89.493    -876.533    -590.289
  O      -89.903    -877.742    -590.981
  C      -90.671    -875.547    -590.329
  O      -90.451    -874.667    -591.443
  C      -91.863    -876.445    -590.587
  O      -92.958    -875.742    -591.145
  C      -91.228    -877.508    -591.494
  N      -92.003    -878.733    -591.540
  C      -93.239    -878.680    -592.175
  O      -93.700    -877.598    -592.560
  N      -93.943    -879.845    -592.353
  C      -93.533    -880.935    -591.765
  N      -94.218    -882.072    -592.027
  C      -92.356    -880.972    -590.879
  C      -91.621    -879.859    -590.844
  O      -90.878    -879.260    -586.528
  O      -88.564    -879.228    -587.598
  H      -88.838    -880.172    -587.653
  H      -93.620    -876.393    -591.471
  H      -92.125    -881.865    -590.319
  H      -90.726    -879.801    -590.233
  H      -91.121    -877.120    -592.519
  H      -92.192    -876.893    -589.642
  H      -90.753    -874.954    -589.417
  H      -88.638    -876.119    -590.849
  H      -94.992    -882.023    -592.671
  H      -88.301    -877.706    -588.943
  H      -93.802    -882.998    -591.889
  H      -88.511    -876.030    -588.422
  P      -91.159    -873.226    -591.422
  C      -89.161    -871.620    -591.031
  O      -90.293    -872.258    -590.486
  O      -92.450    -873.514    -590.512
  O      -91.592    -872.682    -592.743
  H      -93.155    -872.876    -590.738
  H      -88.660    -871.068    -590.236
  H      -89.454    -870.925    -591.814
  H      -88.461    -872.362    -591.429
  H      -89.121    -876.564    -583.976
  H      -90.339    -877.801    -584.177
  H      -90.456    -876.305    -585.072

 3  4  5  6  7  8  9  10  11  12  13  24  27  28  29  30  32 0
 6-311+G(2d,p)
 ****
 34  35 0
 6-311+G(2d,p)
 ****
 1  2  14  15  16  17  18  19  20  21  22  23  25  26 0
 3-21G
 ****
 31  33  36  37  38  39  40  41  42  43  44  45  46 0
 3-21G
 ****


