%nproc=1
%NoSave
%Mem=1900MB
#P OB98/GEN NMR

erre ene a

0 1
  C      333.931    -758.233    -177.312
  O      334.640    -759.311    -177.894
  H      332.902    -758.551    -177.122
  H      333.913    -757.376    -177.988
  H      334.391    -757.948    -176.360
  P      336.133    -759.068    -178.417
  C      337.041    -761.103    -177.125
  O      336.868    -760.494    -178.398
  C      337.483    -762.561    -177.266
  O      336.328    -763.353    -177.673
  C      338.589    -762.765    -178.325
  O      339.477    -763.777    -177.842
  C      337.820    -763.266    -179.525
  O      338.646    -764.000    -180.408
  C      336.675    -764.055    -178.883
  N      335.533    -764.170    -179.797
  C      335.153    -765.467    -180.158
  O      335.768    -766.442    -179.706
  N      334.153    -765.628    -181.074
  C      333.595    -764.585    -181.623
  N      332.617    -764.820    -182.548
  C      333.983    -763.197    -181.284
  C      334.951    -763.064    -180.370
  O      336.897    -757.967    -177.756
  O      335.938    -758.779    -179.984
  H      338.960    -764.813    -179.960
  H      335.831    -757.821    -180.136
  H      333.499    -762.366    -181.784
  H      335.303    -762.080    -180.070
  H      337.013    -765.060    -178.608
  H      337.416    -762.404    -180.083
  H      339.153    -761.842    -178.539
  H      337.800    -762.925    -176.287
  H      332.412    -765.788    -182.765
  H      336.077    -761.061    -176.602
  H      332.157    -764.096    -183.071
  H      337.785    -760.537    -176.544
  P      340.917    -763.392    -177.243
  C      340.697    -764.361    -174.868
  O      341.334    -764.486    -176.136
  O      341.040    -761.972    -176.793
  O      341.931    -763.689    -178.449
  H      342.693    -763.077    -178.390
  H      341.046    -765.134    -174.216
  H      339.638    -764.450    -174.991
  H      340.928    -763.406    -174.445

 6  7  8  9  10  11  12  13  14  15  16  26  30  31  32  33  35 0
 6-311+G(2d,p)
 ****
 37  38 0
 6-311+G(2d,p)
 ****
 1  2  3  4  5  17  18  19  20  21  22  23  24  25 0
 3-21G
 ****
 27  28  29  34  36  39  40  41  42  43  44  45  46 0
 3-21G
 ****


