%nproc=1
%NoSave
%Mem=1900MB
#P OB98/GEN NMR

erre ene a

0 1
  C      114.437     313.225     484.827
  O      114.552     314.500     485.453
  P      113.741     314.825     486.789
  C      111.356     314.146     487.654
  O      112.218     314.421     486.568
  C      110.160     313.326     487.152
  O      110.561     311.955     486.913
  C      109.022     313.313     488.159
  O      108.074     314.336     487.867
  C      108.457     311.909     488.016
  O      107.573     311.837     486.882
  C      109.736     311.094     487.747
  N      110.554     310.669     488.898
  C      111.417     309.574     488.775
  O      111.569     308.955     487.727
  N      112.091     309.217     489.915
  C      112.014     309.841     491.124
  O      112.415     309.381     492.186
  C      111.307     311.137     491.127
  C      110.604     311.473     490.041
  O      113.698     316.435     486.800
  O      114.327     314.272     488.049
  H      108.137     311.798     486.085
  H      114.393     316.785     487.389
  H      112.607     308.337     489.863
  H      111.336     311.739     492.018
  H      110.040     312.392     490.029
  H      109.517     310.193     487.160
  H      107.866     311.632     488.885
  H      109.412     313.435     489.185
  H      109.816     313.751     486.198
  H      111.020     315.083     488.111
  H      111.901     313.583     488.433
  P      106.910     314.662     488.906
  C      105.203     312.994     489.863
  O      105.821     313.486     488.699
  O      106.358     316.048     488.855
  O      107.568     314.328     490.328
  H      107.890     315.157     490.747
  H      104.372     312.346     489.577
  H      104.811     313.825     490.473
  H      105.919     312.418     490.452
  H      115.052     313.201     483.952
  H      113.417     313.053     484.552
  H      114.756     312.463     485.508

 3  4  5  6  7  8  9  10  11  12  13  23  28  29  30  31  32 0
 6-311+G(2d,p)
 ****
 33  34 0
 6-311+G(2d,p)
 ****
 1  2  14  15  16  17  18  19  20  21  22  24  25  26  27 0
 3-21G
 ****
 35  36  37  38  39  40  41  42  43  44  45 0
 3-21G
 ****


