%nproc=1
%NoSave
%Mem=1900MB
#P OB98/GEN NMR

erre ene a

0 1
  C     -114.499     217.507    -152.144
  O     -114.870     216.281    -151.544
  P     -113.895     215.011    -151.586
  C     -115.363     214.018    -153.437
  O     -114.038     214.324    -153.027
  C     -115.504     212.544    -153.817
  O     -114.777     212.293    -155.048
  C     -114.980     211.569    -152.752
  O     -115.865     210.442    -152.741
  C     -113.621     211.171    -153.295
  O     -113.165     209.934    -152.762
  C     -113.898     211.177    -154.800
  N     -112.678     211.269    -155.592
  C     -112.124     210.072    -156.045
  O     -112.586     208.994    -155.664
  N     -111.052     210.128    -156.905
  C     -110.476     211.270    -157.128
  N     -109.460     211.290    -158.036
  C     -110.886     212.522    -156.466
  C     -112.011     212.461    -155.752
  O     -114.030     214.070    -150.433
  O     -112.422     215.644    -151.635
  H     -111.884     215.257    -150.917
  H     -112.355     209.658    -153.240
  H     -110.297     213.420    -156.585
  H     -112.408     213.335    -155.250
  H     -114.443     210.269    -155.095
  H     -112.883     211.940    -153.036
  H     -114.941     212.012    -151.752
  H     -116.564     212.345    -154.022
  H     -109.233     210.420    -158.502
  H     -115.604     214.635    -154.304
  H     -109.172     212.150    -158.506
  H     -116.070     214.279    -152.638
  P     -116.305     209.834    -151.314
  C     -114.926     207.675    -151.717
  O     -115.195     208.775    -150.867
  O     -117.530     208.884    -151.736
  O     -116.761     210.821    -150.284
  H     -118.125     208.771    -150.970
  H     -114.196     207.026    -151.221
  H     -114.497     208.026    -152.659
  H     -115.832     207.100    -151.904
  H     -115.282     218.223    -152.006
  H     -114.333     217.356    -153.190
  H     -113.601     217.869    -151.689

 3  4  5  6  7  8  9  10  11  12  13  24  27  28  29  30  32 0
 6-311+G(2d,p)
 ****
 34  35 0
 6-311+G(2d,p)
 ****
 1  2  14  15  16  17  18  19  20  21  22  23  25  26 0
 3-21G
 ****
 31  33  36  37  38  39  40  41  42  43  44  45  46 0
 3-21G
 ****


