%nproc=1
%NoSave
%Mem=1900MB
#P OB98/GEN NMR

erre ene a

0 1
  C     -729.001     228.718     308.270
  O     -730.124     229.550     308.071
  H     -729.351     227.712     308.526
  H     -728.397     229.087     309.108
  H     -728.390     228.655     307.365
  P     -729.887     231.041     307.543
  C     -731.545     230.652     305.603
  O     -730.229     231.050     305.975
  C     -731.646     230.546     304.080
  O     -730.674     229.597     303.576
  C     -733.000     230.057     303.581
  O     -733.977     231.072     303.651
  C     -732.648     229.607     302.175
  O     -732.601     230.721     301.274
  C     -731.242     228.998     302.382
  N     -731.261     227.541     302.481
  C     -730.640     226.837     301.448
  O     -730.136     227.391     300.477
  N     -730.661     225.475     301.558
  C     -731.318     224.755     302.522
  O     -731.383     223.527     302.526
  C     -731.969     225.542     303.572
  C     -731.918     226.873     303.512
  O     -728.575     231.658     307.902
  O     -731.116     231.868     308.178
  H     -733.521     231.036     301.169
  H     -730.780     232.402     308.923
  H     -730.237     224.947     300.812
  H     -732.490     225.015     304.365
  H     -732.399     227.484     304.280
  H     -730.575     229.275     301.556
  H     -733.371     228.899     301.777
  H     -733.322     229.184     304.165
  H     -731.411     231.533     303.653
  H     -732.251     231.401     305.963
  H     -731.774     229.685     306.074
  P     -735.280     230.883     304.555
  C     -735.279     233.045     305.945
  O     -735.034     231.641     305.951
  O     -735.767     229.468     304.684
  O     -736.386     231.793     303.843
  H     -737.135     231.239     303.554
  H     -735.085     233.445     306.918
  H     -736.300     233.228     305.681
  H     -734.636     233.516     305.231

 6  7  8  9  10  11  12  13  14  15  16  26  31  32  33  34  35 0
 6-311+G(2d,p)
 ****
 36  37 0
 6-311+G(2d,p)
 ****
 1  2  3  4  5  17  18  19  20  21  22  23  24  25 0
 3-21G
 ****
 27  28  29  30  38  39  40  41  42  43  44  45 0
 3-21G
 ****


