%nproc=1
%NoSave
%Mem=1900MB
#P OB98/GEN NMR

erre ene a

0 1
  C      296.027      63.654    -383.557
  O      294.702      64.138    -383.485
  H      296.045      62.580    -383.350
  H      296.408      63.826    -384.569
  H      296.671      64.184    -382.844
  P      294.011      64.145    -382.036
  C      292.458      62.181    -382.738
  O      293.432      62.660    -381.821
  C      292.079      60.735    -382.410
  O      293.242      59.885    -382.629
  C      291.623      60.535    -380.956
  O      290.549      59.592    -380.933
  C      292.851      59.941    -380.283
  O      292.517      59.171    -379.133
  C      293.460      59.132    -381.424
  N      297.230      55.703    -381.868
  C      295.931      55.675    -382.240
  N      294.993      56.637    -382.093
  C      295.526      57.734    -381.527
  C      296.828      57.911    -381.083
  C      297.701      56.825    -381.266
  N      299.016      56.826    -380.848
  N      296.990      59.162    -380.519
  C      295.795      59.733    -380.623
  N      294.882      58.904    -381.219
  O      292.700      65.032    -382.281
  O      294.849      64.680    -380.921
  H      292.080      59.758    -378.478
  H      292.938      65.978    -382.272
  H      295.598      54.756    -382.725
  H      295.545      60.726    -380.278
  H      292.990      58.145    -381.534
  H      293.526      60.749    -379.973
  H      291.300      61.467    -380.483
  H      291.306      60.405    -383.119
  H      292.870      62.237    -383.754
  H      299.554      55.985    -380.965
  H      299.369      57.629    -380.343
  H      291.566      62.819    -382.683
  P      289.061      60.193    -380.935
  C      288.965      60.283    -378.341
  O      288.834      61.000    -379.560
  O      288.136      58.896    -380.774
  O      288.718      60.950    -382.172
  H      287.427      58.903    -381.443
  H      288.788      60.943    -377.518
  H      289.954      59.880    -378.269
  H      288.252      59.485    -378.318

 6  7  8  9  10  11  12  13  14  15  25  28  32  33  34  35 0
 6-311+G(2d,p)
 ****
 36  39  40 0
 6-311+G(2d,p)
 ****
 1  2  3  4  5  16  17  18  19  20  21  22  23  24 0
 3-21G
 ****
 26  27  29  30  31  37  38  41  42  43  44  45  46  47 0
 3-21G
 ****
 48 0
 3-21G
 ****


