%nproc=1
%NoSave
%Mem=1900MB
#P OB98/GEN NMR

erre ene a

0 1
  C      897.748    -893.420    -193.295
  O      898.650    -892.840    -192.367
  P      898.185    -892.710    -190.828
  C      899.646    -894.730    -190.068
  O      898.350    -894.170    -190.166
  C      899.816    -895.420    -188.714
  O      899.853    -894.410    -187.680
  C      898.696    -896.410    -188.349
  O      899.298    -897.450    -187.569
  C      897.791    -895.570    -187.470
  O      896.962    -896.380    -186.635
  C      898.801    -894.730    -186.731
  N      896.121    -892.680    -182.964
  C      896.446    -894.000    -183.214
  N      896.064    -894.870    -182.286
  N      897.114    -894.400    -184.249
  C      897.446    -893.400    -185.101
  C      897.158    -892.050    -184.984
  C      896.459    -891.620    -183.812
  O      896.228    -890.440    -183.520
  N      897.602    -891.370    -186.083
  C      898.234    -892.260    -186.801
  N      898.210    -893.490    -186.219
  O      896.595    -892.550    -190.967
  O      898.826    -891.610    -190.038
  H      896.453    -896.990    -187.209
  H      896.349    -891.600    -190.957
  H      895.626    -892.400    -182.124
  H      898.735    -892.080    -187.744
  H      899.254    -895.250    -185.881
  H      897.133    -894.950    -188.099
  H      895.560    -894.640    -181.418
  H      898.190    -896.830    -189.221
  H      896.300    -895.850    -182.406
  H      900.790    -895.920    -188.713
  H      900.385    -893.910    -190.135
  H      899.829    -895.420    -190.904
  P      899.039    -898.970    -188.023
  C      900.897    -899.320    -189.795
  O      899.520    -899.100    -189.543
  O      897.446    -899.050    -188.154
  O      899.563    -900.000    -187.068
  H      897.143    -899.950    -187.919
  H      901.019    -899.810    -190.778
  H      901.353    -899.980    -189.046
  H      901.423    -898.370    -189.780
  H      898.197    -893.436    -194.266
  H      896.848    -892.841    -193.327
  H      897.518    -894.420    -192.992

 3  4  5  6  7  8  9  10  11  12  23  26  30  31 0
 6-311+G(2d,p)
 ****
 33  35  36  37  38 0
 6-311+G(2d,p)
 ****
 1  2  13  14  15  16  17  18  19  20  21  22  24  25 0
 3-21G
 ****
 27  28  29  32  34  39  40  41  42  43  44  45  46  47  48  49 0
 3-21G
 ****


