%nproc=1
%NoSave
%Mem=1900MB
#P OB98/GEN NMR

erre ene a

0 1
  C      338.321    -101.783     -13.375
  O      337.612    -102.992     -13.199
  H      338.644    -101.714     -14.416
  H      339.205    -101.774     -12.731
  H      337.682    -100.928     -13.144
  P      336.968    -103.252     -11.751
  C      335.053    -101.504     -11.857
  O      336.307    -101.858     -11.294
  C      334.011    -101.284     -10.764
  O      334.451    -100.183      -9.910
  C      332.611    -100.925     -11.287
  O      331.645    -101.512     -10.405
  C      332.558     -99.417     -11.109
  O      331.224     -98.915     -11.058
  C      333.341     -99.270      -9.805
  N      331.815     -94.682      -8.413
  C      331.122     -95.875      -8.485
  N      329.818     -95.844      -8.129
  N      331.660     -97.002      -8.867
  C      332.979     -96.894      -9.162
  C      333.776     -95.775      -9.139
  C      333.159     -94.526      -8.737
  O      333.717     -93.435      -8.675
  N      335.057     -96.074      -9.535
  C      335.031     -97.368      -9.795
  N      333.792     -97.910      -9.584
  O      338.259    -103.383     -10.814
  O      336.078    -104.445     -11.651
  H      330.791     -99.295     -10.267
  H      338.514    -104.320     -10.720
  H      331.350     -93.839      -8.125
  H      335.873     -97.956     -10.138
  H      332.746     -99.553      -8.928
  H      333.080     -98.919     -11.937
  H      329.351     -95.024      -7.778
  H      332.417    -101.243     -12.315
  H      329.304     -96.719      -8.130
  H      333.974    -102.177     -10.132
  H      334.718    -102.317     -12.513
  H      335.170    -100.594     -12.453
  P      330.364    -102.220     -11.056
  C      330.800    -104.665     -10.285
  O      330.742    -103.745     -11.367
  O      330.302    -101.566     -12.520
  O      329.093    -102.003     -10.303
  H      329.383    -101.563     -12.842
  H      331.063    -105.634     -10.655
  H      329.844    -104.713      -9.806
  H      331.536    -104.340      -9.580

 6  7  8  9  10  11  12  13  14  15  26  29  33  34 0
 6-311+G(2d,p)
 ****
 36  38  39  40  41 0
 6-311+G(2d,p)
 ****
 1  2  3  4  5  16  17  18  19  20  21  22  23  24  25 0
 3-21G
 ****
 27  28  30  31  32  35  37  42  43  44  45  46  47 0
 3-21G
 ****
 48  49 0
 3-21G
 ****


