%nproc=1
%NoSave
%Mem=1900MB
#P OB98/GEN NMR

erre ene a

0 1
  C       66.396     577.158     -81.973
  O       65.642     575.960     -82.058
  P       66.441     574.570     -81.963
  C       65.857     574.044     -79.482
  O       66.863     574.394     -80.425
  C       66.057     572.607     -79.007
  O       67.417     572.396     -78.576
  C       65.193     572.220     -77.815
  O       63.872     571.874     -78.195
  C       65.934     570.998     -77.302
  O       65.593     569.846     -78.096
  C       67.401     571.390     -77.532
  N       69.876     570.179     -73.293
  C       69.551     569.391     -74.379
  N       69.880     568.084     -74.296
  N       68.960     569.845     -75.451
  C       68.681     571.172     -75.391
  C       68.959     572.053     -74.370
  C       69.603     571.535     -73.183
  O       69.870     572.170     -72.169
  N       68.534     573.319     -74.675
  C       68.007     573.209     -75.877
  N       68.030     571.917     -76.335
  O       67.830     574.890     -82.690
  O       65.741     573.405     -82.578
  H       65.810     570.072     -79.022
  H       68.282     574.059     -82.932
  H       70.331     569.779     -72.485
  H       67.579     574.028     -76.442
  H       67.999     570.546     -77.886
  H       65.689     570.754     -76.265
  H       70.281     567.659     -73.472
  H       65.202     573.003     -77.044
  H       69.595     567.473     -75.052
  H       65.863     571.939     -79.858
  H       64.876     574.144     -79.951
  H       65.905     574.734     -78.633
  P       62.680     572.452     -77.281
  C       61.829     573.780     -79.344
  O       62.228     573.815     -77.987
  O       63.445     572.936     -75.961
  O       61.598     571.468     -76.986
  H       62.841     572.917     -75.195
  H       61.309     574.714     -79.581
  H       61.147     572.947     -79.531
  H       62.707     573.694     -79.989
  H       65.739     577.999     -82.051
  H       67.109     577.188     -82.770
  H       66.908     577.191     -81.034

 3  4  5  6  7  8  9  10  11  12  23  26  30  31 0
 6-311+G(2d,p)
 ****
 33  35  36  37  38 0
 6-311+G(2d,p)
 ****
 1  2  13  14  15  16  17  18  19  20  21  22  24  25 0
 3-21G
 ****
 27  28  29  32  34  39  40  41  42  43  44  45  46  47  48  49 0
 3-21G
 ****


