%nproc=1
%NoSave
%Mem=1900MB
#P OB98/GEN NMR

erre ene a

0 1
  C     -295.741     834.652    -103.455
  O     -294.836     835.677    -103.807
  H     -296.743     834.961    -103.785
  H     -295.764     834.517    -102.372
  H     -295.485     833.716    -103.949
  P     -293.264     835.435    -103.525
  C     -292.335     835.659    -105.917
  O     -292.658     834.771    -104.858
  C     -293.000     835.194    -107.215
  O     -294.443     835.192    -107.036
  C     -292.689     836.110    -108.411
  O     -292.544     835.298    -109.583
  C     -293.947     836.964    -108.544
  O     -294.146     837.432    -109.879
  C     -295.038     836.000    -108.070
  N     -299.705     837.543    -109.230
  C     -298.806     836.769    -109.946
  N     -299.211     836.366    -111.179
  N     -297.620     836.426    -109.510
  C     -297.353     836.882    -108.262
  C     -298.150     837.654    -107.450
  C     -299.456     838.049    -107.958
  O     -300.277     838.735    -107.370
  N     -297.511     837.952    -106.269
  C     -296.340     837.354    -106.362
  N     -296.200     836.700    -107.558
  O     -292.950     834.702    -102.265
  O     -292.647     836.902    -103.530
  H     -294.091     836.640    -110.464
  H     -292.506     837.237    -102.623
  H     -300.582     837.792    -109.612
  H     -295.567     837.383    -105.609
  H     -295.389     835.332    -108.869
  H     -293.868     837.829    -107.880
  H     -300.112     836.576    -111.570
  H     -291.800     836.705    -108.280
  H     -298.583     835.777    -111.715
  H     -292.692     834.168    -107.418
  H     -291.246     835.672    -106.036
  H     -292.673     836.663    -105.665
  P     -291.684     833.945    -109.486
  C     -293.148     831.974    -110.276
  O     -292.676     832.730    -109.161
  O     -290.464     834.021    -108.618
  O     -291.280     833.667    -111.025
  H     -290.431     833.216    -111.035
  H     -293.798     831.197    -109.931
  H     -292.316     831.541    -110.791
  H     -293.684     832.617    -110.942

 6  7  8  9  10  11  12  13  14  15  26  29  33  34 0
 6-311+G(2d,p)
 ****
 36  38  39  40  41 0
 6-311+G(2d,p)
 ****
 1  2  3  4  5  16  17  18  19  20  21  22  23  24  25 0
 3-21G
 ****
 27  28  30  31  32  35  37  42  43  44  45  46  47 0
 3-21G
 ****
 48  49 0
 3-21G
 ****


