%nproc=1
%NoSave
%Mem=1900MB
#P OB98/GEN NMR

erre ene a

0 1
  C     -431.487     372.563    -461.082
  O     -432.240     371.684    -461.897
  H     -430.423     372.402    -461.274
  H     -431.687     372.361    -460.026
  H     -431.736     373.602    -461.318
  P     -433.833     371.787    -461.778
  C     -435.661     370.070    -461.122
  O     -434.272     370.386    -461.126
  C     -435.947     368.959    -460.114
  O     -435.446     367.695    -460.584
  C     -435.304     369.164    -458.747
  O     -436.070     370.066    -457.956
  C     -435.345     367.751    -458.192
  O     -436.662     367.466    -457.686
  C     -435.058     366.894    -459.437
  N     -431.314     363.853    -457.680
  C     -432.533     364.154    -457.179
  N     -433.460     365.001    -457.677
  C     -433.027     365.573    -458.817
  C     -431.800     365.367    -459.438
  C     -430.925     364.454    -458.833
  N     -429.684     364.133    -459.349
  N     -431.698     366.126    -460.588
  C     -432.865     366.744    -460.677
  N     -433.678     366.470    -459.615
  O     -434.552     372.191    -463.024
  O     -433.984     372.804    -460.543
  H     -436.652     366.560    -457.316
  H     -433.310     372.621    -459.869
  H     -432.802     363.641    -456.259
  H     -433.164     367.386    -461.508
  H     -435.677     365.978    -459.451
  H     -434.650     367.610    -457.358
  H     -434.259     369.488    -458.843
  H     -437.039     368.868    -460.012
  H     -435.979     369.756    -462.119
  H     -429.060     363.609    -458.762
  H     -429.361     364.668    -460.130
  H     -436.204     370.977    -460.850
  P     -435.551     370.524    -456.504
  C     -435.679     369.600    -454.108
  O     -435.941     369.343    -455.491
  O     -436.001     371.885    -456.081
  O     -433.964     370.422    -456.595
  H     -433.541     371.163    -456.104
  H     -435.975     368.753    -453.525
  H     -436.233     370.460    -453.794
  H     -434.633     369.780    -453.971

 6  7  8  9  10  11  12  13  14  15  25  28  32  33  34  35 0
 6-311+G(2d,p)
 ****
 36  39  40 0
 6-311+G(2d,p)
 ****
 1  2  3  4  5  16  17  18  19  20  21  22  23  24 0
 3-21G
 ****
 26  27  29  30  31  37  38  41  42  43  44  45  46  47 0
 3-21G
 ****
 48 0
 3-21G
 ****


