%nproc=1
%NoSave
%Mem=1900MB
#P OB98/GEN NMR

erre ene a

0 1
  C      -90.188    -321.954    -484.027
  O      -91.487    -321.664    -484.527
  P      -92.721    -321.784    -483.505
  C      -93.911    -319.484    -483.813
  O      -93.057    -320.291    -483.007
  C      -95.380    -319.764    -483.503
  O      -95.597    -319.599    -482.069
  C      -96.376    -318.846    -484.235
  O      -97.536    -319.629    -484.517
  C      -96.670    -317.798    -483.166
  O      -97.841    -317.033    -483.414
  C      -96.702    -318.679    -481.919
  N      -99.165    -315.717    -478.548
  C      -99.594    -316.384    -479.644
  N      -98.885    -317.161    -480.490
  C      -97.594    -317.225    -480.107
  C      -97.010    -316.587    -479.028
  C      -97.853    -315.798    -478.221
  N      -97.415    -315.113    -477.102
  N      -95.657    -316.866    -478.960
  C      -95.435    -317.660    -479.987
  N      -96.574    -317.917    -480.695
  O      -92.062    -322.463    -482.219
  O      -93.896    -322.562    -484.017
  H      -98.616    -317.617    -483.514
  H      -92.673    -323.102    -481.805
  H     -100.654    -316.283    -479.877
  H      -94.464    -318.058    -480.267
  H      -97.632    -319.266    -481.853
  H      -95.835    -317.092    -483.124
  H      -95.985    -318.431    -485.166
  H      -95.592    -320.822    -483.748
  H      -93.728    -319.708    -484.875
  H      -98.050    -314.422    -476.716
  H      -96.410    -315.014    -476.988
  H      -93.666    -318.423    -483.652
  P      -98.357    -319.337    -485.869
  C      -97.471    -321.510    -486.938
  O      -97.504    -320.100    -487.011
  O      -97.969    -317.810    -486.141
  O      -99.821    -319.614    -485.813
  H      -97.003    -317.672    -486.107
  H      -96.945    -321.892    -487.819
  H      -98.495    -321.915    -486.929
  H      -96.933    -321.825    -486.041
  H      -89.469    -321.834    -484.811
  H      -90.161    -322.962    -483.669
  H      -89.957    -321.284    -483.225

 3  4  5  6  7  8  9  10  11  12  22  25  29  30  31  32 0
 6-311+G(2d,p)
 ****
 33  36  37 0
 6-311+G(2d,p)
 ****
 1  2  13  14  15  16  17  18  19  20  21  23  24  26 0
 3-21G
 ****
 27  28  34  35  38  39  40  41  42  43  44  45  46  47  48 0
 3-21G
 ****


