%nproc=1
%NoSave
%Mem=1900MB
#P OB98/GEN NMR

erre ene a

0 1
  C     -181.352     584.126      40.539
  O     -181.438     582.736      40.243
  P     -180.358     582.122      39.235
  C     -180.745     579.652      39.921
  O     -180.866     580.634      38.908
  C     -181.286     578.309      39.446
  O     -180.552     577.859      38.287
  C     -181.186     577.186      40.461
  O     -182.244     577.207      41.401
  C     -181.315     575.965      39.552
  O     -182.694     575.753      39.220
  C     -180.533     576.408      38.317
  N     -177.509     572.353      37.579
  C     -178.850     572.479      37.584
  N     -179.579     573.588      37.802
  C     -178.786     574.644      38.065
  C     -177.402     574.647      38.128
  C     -176.751     573.444      37.854
  N     -175.380     573.321      37.816
  N     -176.944     575.919      38.420
  C     -178.022     576.661      38.531
  N     -179.162     575.936      38.314
  O     -179.082     581.881      40.172
  O     -180.031     582.983      38.057
  H     -183.131     575.388      40.015
  H     -178.268     581.860      39.632
  H     -179.411     571.576      37.387
  H     -178.025     577.722      38.755
  H     -181.006     576.061      37.384
  H     -180.958     575.048      40.020
  H     -180.199     577.171      40.948
  H     -182.338     578.455      39.139
  H     -181.301     579.971      40.808
  H     -174.989     572.468      37.439
  H     -174.819     574.166      37.822
  H     -179.683     579.557      40.202
  P     -181.937     576.570      42.851
  C     -183.060     578.449      44.263
  O     -183.108     577.109      43.803
  O     -180.643     577.382      43.330
  O     -181.712     575.101      42.837
  H     -180.128     576.850      43.972
  H     -184.049     578.735      44.613
  H     -182.763     579.129      43.462
  H     -182.343     578.526      45.096
  H     -182.132     584.394      41.221
  H     -181.458     584.690      39.636
  H     -180.402     584.338      40.982

 3  4  5  6  7  8  9  10  11  12  22  25  29  30  31  32 0
 6-311+G(2d,p)
 ****
 33  36  37 0
 6-311+G(2d,p)
 ****
 1  2  13  14  15  16  17  18  19  20  21  23  24  26 0
 3-21G
 ****
 27  28  34  35  38  39  40  41  42  43  44  45  46  47  48 0
 3-21G
 ****


