%nproc=1
%NoSave
%Mem=1900MB
#P OB98/GEN NMR

erre ene a

0 1
  C     -124.901      26.263     370.740
  O     -124.283      27.529     370.824
  H     -124.970      25.977     369.685
  H     -125.909      26.300     371.155
  H     -124.305      25.511     371.265
  P     -124.117      28.211     372.265
  C     -121.583      28.612     371.965
  O     -122.861      29.208     372.167
  C     -120.474      29.622     372.281
  O     -120.376      30.536     371.156
  C     -120.765      30.440     373.546
  O     -119.691      30.419     374.482
  C     -121.200      31.797     372.990
  O     -120.981      32.884     373.863
  C     -120.447      31.882     371.656
  N     -121.081      32.763     370.675
  C     -120.624      34.074     370.602
  O     -119.717      34.545     371.288
  N     -121.251      34.871     369.676
  C     -122.269      34.495     368.852
  O     -122.790      35.251     368.039
  C     -122.732      33.104     368.998
  C     -122.127      32.314     369.886
  O     -124.077      27.271     373.422
  O     -125.364      29.213     372.366
  H     -121.552      32.744     374.649
  H     -126.034      28.839     372.970
  H     -120.915      35.815     369.603
  H     -123.548      32.779     368.367
  H     -122.443      31.283     370.019
  H     -119.428      32.241     371.810
  H     -122.277      31.757     372.789
  H     -121.600      30.008     374.107
  H     -119.521      29.086     372.353
  H     -121.522      28.290     370.923
  H     -121.481      27.736     372.617
  P     -119.765      29.786     375.944
  C     -117.508      28.461     375.713
  O     -118.285      29.420     376.423
  O     -120.816      28.746     376.158
  O     -120.137      31.046     376.887
  H     -120.677      30.686     377.623
  H     -116.554      28.355     376.185
  H     -117.372      28.789     374.704
  H     -118.014      27.518     375.717

 6  7  8  9  10  11  12  13  14  15  16  26  31  32  33  34  35 0
 6-311+G(2d,p)
 ****
 36  37 0
 6-311+G(2d,p)
 ****
 1  2  3  4  5  17  18  19  20  21  22  23  24  25 0
 3-21G
 ****
 27  28  29  30  38  39  40  41  42  43  44  45 0
 3-21G
 ****


