%nproc=1
%NoSave
%Mem=1900MB
#P OB98/GEN NMR

erre ene a

0 1
  C      147.508     -52.683     -30.428
  O      146.711     -52.635     -31.594
  H      147.349     -53.645     -29.933
  H      147.217     -51.885     -29.740
  H      148.569     -52.590     -30.677
  P      146.906     -51.415     -32.615
  C      145.348     -49.797     -31.347
  O      146.677     -50.069     -31.777
  C      144.911     -48.422     -31.847
  O      145.716     -47.391     -31.236
  C      145.064     -48.231     -33.351
  O      144.036     -48.905     -34.053
  C      145.019     -46.713     -33.449
  O      143.667     -46.237     -33.392
  C      145.804     -46.300     -32.180
  N      147.199     -45.956     -32.452
  C      147.416     -44.948     -33.386
  O      146.507     -44.386     -33.992
  N      148.727     -44.616     -33.613
  C      149.815     -45.240     -33.073
  O      150.973     -44.939     -33.350
  C      149.526     -46.321     -32.120
  C      148.252     -46.625     -31.858
  O      146.131     -51.503     -33.888
  O      148.485     -51.404     -32.887
  H      143.717     -45.268     -33.270
  H      148.675     -51.834     -33.742
  H      148.905     -43.896     -34.295
  H      150.364     -46.842     -31.676
  H      148.018     -47.423     -31.163
  H      145.326     -45.435     -31.703
  H      145.446     -46.338     -34.379
  H      146.052     -48.575     -33.680
  H      143.869     -48.263     -31.538
  H      145.323     -49.813     -30.251
  H      144.686     -50.578     -31.731
  P      144.300     -49.501     -35.514
  C      143.022     -47.702     -36.813
  O      144.298     -48.272     -36.548
  O      143.421     -50.643     -35.905
  O      145.839     -49.943     -35.480
  H      145.902     -50.917     -35.429
  H      143.129     -46.896     -37.509
  H      142.600     -47.332     -35.902
  H      142.377     -48.448     -37.228

 6  7  8  9  10  11  12  13  14  15  16  26  31  32  33  34  35 0
 6-311+G(2d,p)
 ****
 36  37 0
 6-311+G(2d,p)
 ****
 1  2  3  4  5  17  18  19  20  21  22  23  24  25 0
 3-21G
 ****
 27  28  29  30  38  39  40  41  42  43  44  45 0
 3-21G
 ****


