%nproc=1
%NoSave
%Mem=1900MB
#P OB98/GEN NMR

erre ene a

0 1
  C     -328.847     -71.384    -338.407
  O     -328.395     -70.136    -337.917
  H     -328.180     -72.167    -338.039
  H     -328.827     -71.390    -339.501
  H     -329.859     -71.585    -338.047
  P     -329.224     -68.842    -338.376
  C     -327.002     -67.715    -339.079
  O     -328.295     -68.146    -339.483
  C     -326.339     -66.899    -340.188
  O     -326.156     -67.712    -341.358
  C     -327.137     -65.681    -340.634
  O     -326.895     -64.585    -339.764
  C     -326.545     -65.437    -342.013
  O     -325.298     -64.724    -341.884
  C     -326.281     -66.861    -342.528
  N     -328.581     -71.152    -344.157
  C     -327.472     -70.957    -343.410
  N     -326.887     -69.792    -343.060
  C     -327.571     -68.747    -343.561
  C     -328.716     -68.793    -344.341
  C     -329.230     -70.066    -344.637
  N     -330.361     -70.262    -345.402
  N     -329.134     -67.523    -344.674
  C     -328.291     -66.723    -344.051
  N     -327.305     -67.415    -343.395
  O     -329.710     -67.960    -337.275
  O     -330.374     -69.516    -339.265
  H     -325.501     -63.884    -341.429
  H     -330.008     -70.237    -339.806
  H     -326.989     -71.858    -343.044
  H     -328.362     -65.639    -344.029
  H     -325.338     -66.923    -343.082
  H     -327.193     -64.831    -342.648
  H     -328.203     -65.906    -340.735
  H     -325.340     -66.603    -339.836
  H     -326.374     -68.578    -338.831
  H     -330.544     -71.200    -345.722
  H     -330.763     -69.457    -345.863
  H     -327.121     -67.106    -338.178
  P     -327.851     -63.295    -339.773
  C     -325.857     -61.806    -340.422
  O     -327.151     -62.270    -340.788
  O     -328.173     -62.756    -338.423
  O     -329.148     -63.770    -340.578
  H     -329.888     -63.155    -340.414
  H     -325.495     -61.133    -341.171
  H     -325.190     -62.639    -340.338
  H     -325.913     -61.298    -339.482

 6  7  8  9  10  11  12  13  14  15  25  28  32  33  34  35 0
 6-311+G(2d,p)
 ****
 36  39  40 0
 6-311+G(2d,p)
 ****
 1  2  3  4  5  16  17  18  19  20  21  22  23  24 0
 3-21G
 ****
 26  27  29  30  31  37  38  41  42  43  44  45  46  47 0
 3-21G
 ****
 48 0
 3-21G
 ****


