%nproc=1
%NoSave
%Mem=1900MB
#P OB98/GEN NMR

erre ene a

0 1
  C      248.187    -446.308    -149.575
  O      247.283    -447.126    -150.324
  P      247.110    -448.671    -149.925
  C      248.301    -450.905    -150.378
  O      248.393    -449.490    -150.430
  C      249.674    -451.591    -150.460
  O      250.197    -451.527    -151.815
  C      250.736    -450.989    -149.530
  O      251.555    -452.075    -149.076
  C      251.517    -450.085    -150.464
  O      252.796    -449.745    -149.954
  C      251.512    -450.944    -151.745
  N      251.825    -450.170    -152.935
  C      253.148    -450.190    -153.376
  O      254.018    -450.758    -152.720
  N      253.459    -449.545    -154.552
  C      252.558    -448.812    -155.140
  N      252.899    -448.197    -156.302
  C      251.200    -448.613    -154.593
  C      250.894    -449.338    -153.513
  O      245.794    -449.276    -150.281
  O      247.316    -448.647    -148.330
  H      252.683    -449.189    -149.154
  H      246.734    -449.319    -147.928
  H      250.509    -447.930    -155.060
  H      249.927    -449.276    -153.045
  H      252.240    -451.766    -151.653
  H      250.954    -449.157    -150.630
  H      250.318    -450.472    -148.657
  H      249.529    -452.657    -150.217
  H      253.842    -448.315    -156.656
  H      247.669    -451.256    -151.199
  H      252.229    -447.646    -156.846
  H      247.769    -451.191    -149.453
  P      251.364    -452.632    -147.581
  C      252.161    -451.940    -145.199
  O      252.237    -451.720    -146.596
  O      252.226    -453.986    -147.620
  O      249.949    -452.934    -147.171
  H      251.879    -454.603    -146.941
  H      253.006    -451.439    -144.716
  H      252.211    -453.008    -144.971
  H      251.226    -451.524    -144.804
  H      248.180    -445.314    -149.971
  H      249.175    -446.713    -149.644
  H      247.882    -446.285    -148.550

 3  4  5  6  7  8  9  10  11  12  13  23  27  28  29  30  32 0
 6-311+G(2d,p)
 ****
 34  35 0
 6-311+G(2d,p)
 ****
 1  2  14  15  16  17  18  19  20  21  22  24  25  26 0
 3-21G
 ****
 31  33  36  37  38  39  40  41  42  43  44  45  46 0
 3-21G
 ****


