%nproc=1
%NoSave
%Mem=1900MB
#P OB98/GEN NMR

erre ene a

0 1
  C       92.780      45.522      23.554
  O       91.950      45.498      24.694
  H       92.542      44.656      22.931
  H       93.828      45.458      23.858
  H       92.622      46.429      22.967
  P       91.857      46.808      25.611
  C       89.275      46.849      25.654
  O       90.464      47.525      25.269
  C       88.040      47.542      25.067
  O       87.973      48.898      25.579
  C       88.126      47.647      23.540
  O       86.838      47.674      22.931
  C       88.798      48.993      23.334
  O       88.544      49.557      22.048
  C       88.216      49.804      24.489
  N       89.020      54.836      24.632
  C       88.095      54.121      23.898
  N       87.275      54.842      23.098
  N       88.000      52.817      23.927
  C       88.930      52.223      24.712
  C       89.909      52.822      25.469
  C       89.986      54.270      25.457
  O       90.799      54.952      26.069
  N       90.674      51.892      26.129
  C       90.160      50.732      25.770
  N       89.083      50.881      24.930
  O       92.929      47.804      24.954
  O       92.125      46.596      27.070
  H       89.040      50.397      21.993
  H       93.212      48.472      25.603
  H       89.031      55.841      24.596
  H       90.517      49.763      26.099
  H       87.256      50.250      24.204
  H       89.881      48.854      23.415
  H       87.449      55.817      22.902
  H       88.713      46.846      23.097
  H       86.820      54.331      22.336
  H       87.129      47.031      25.401
  H       89.241      46.860      26.747
  H       89.316      45.805      25.344
  P       86.388      46.426      22.034
  C       84.867      45.319      23.896
  O       85.931      45.218      22.973
  O       87.755      45.911      21.388
  O       85.362      46.750      20.993
  H       87.738      46.018      20.418
  H       84.749      44.387      24.408
  H       83.964      45.556      23.374
  H       85.082      46.090      24.606

 6  7  8  9  10  11  12  13  14  15  26  29  33  34 0
 6-311+G(2d,p)
 ****
 36  38  39  40  41 0
 6-311+G(2d,p)
 ****
 1  2  3  4  5  16  17  18  19  20  21  22  23  24  25 0
 3-21G
 ****
 27  28  30  31  32  35  37  42  43  44  45  46  47 0
 3-21G
 ****
 48  49 0
 3-21G
 ****


