%nproc=1
%NoSave
%Mem=1900MB
#P OB98/GEN NMR

erre ene a

0 1
  C       43.032    -255.663    -443.984
  O       43.878    -256.320    -444.908
  H       42.295    -256.381    -443.612
  H       42.502    -254.839    -444.469
  H       43.610    -255.285    -443.137
  P       45.046    -255.471    -445.600
  C       45.722    -257.855    -446.323
  O       45.763    -256.468    -446.632
  C       45.959    -258.677    -447.585
  O       47.258    -258.389    -448.137
  C       45.910    -260.187    -447.358
  O       44.566    -260.638    -447.325
  C       46.676    -260.673    -448.578
  O       45.832    -260.604    -449.742
  C       47.800    -259.629    -448.673
  N       52.470    -261.576    -448.967
  C       51.496    -261.453    -449.941
  N       51.800    -261.959    -451.154
  N       50.328    -260.900    -449.735
  C       50.144    -260.503    -448.456
  C       51.024    -260.586    -447.402
  C       52.335    -261.149    -447.654
  O       53.231    -261.262    -446.825
  N       50.458    -260.140    -446.235
  C       49.250    -259.749    -446.594
  N       49.004    -259.963    -447.929
  O       45.998    -254.773    -444.676
  O       44.271    -254.447    -446.553
  H       45.427    -259.718    -449.739
  H       44.101    -253.602    -446.098
  H       53.342    -262.028    -449.182
  H       48.517    -259.306    -445.930
  H       48.102    -259.436    -449.708
  H       47.020    -261.704    -448.486
  H       52.545    -262.632    -451.281
  H       46.462    -260.482    -446.460
  H       51.082    -261.924    -451.866
  H       45.217    -258.368    -448.332
  H       44.735    -258.074    -445.905
  H       46.483    -258.100    -445.576
  P       43.902    -261.164    -445.961
  C       41.551    -260.807    -446.972
  O       42.464    -261.727    -446.389
  O       43.874    -260.168    -444.852
  O       44.705    -262.497    -445.612
  H       45.516    -262.341    -445.066
  H       40.638    -261.312    -447.208
  H       41.976    -260.401    -447.866
  H       41.352    -260.015    -446.281

 6  7  8  9  10  11  12  13  14  15  26  29  33  34 0
 6-311+G(2d,p)
 ****
 36  38  39  40  41 0
 6-311+G(2d,p)
 ****
 1  2  3  4  5  16  17  18  19  20  21  22  23  24  25 0
 3-21G
 ****
 27  28  30  31  32  35  37  42  43  44  45  46  47 0
 3-21G
 ****
 48  49 0
 3-21G
 ****


