%nproc=1
%NoSave
%Mem=1900MB
#P OB98/GEN NMR

erre ene a

0 1
  C       53.797     -39.996     -20.558
  O       54.230     -40.992     -21.462
  H       53.929     -39.010     -21.008
  H       52.734     -40.147     -20.350
  H       54.352     -40.055     -19.618
  P       55.812     -41.151     -21.676
  C       55.396     -43.632     -22.313
  O       56.010     -42.402     -22.665
  C       55.298     -44.548     -23.530
  O       54.230     -44.062     -24.391
  C       56.582     -44.622     -24.371
  O       56.750     -45.968     -24.826
  C       56.269     -43.734     -25.562
  O       57.026     -44.075     -26.717
  C       54.769     -43.966     -25.721
  N       51.446     -42.905     -29.418
  C       51.671     -44.027     -28.703
  N       52.545     -44.209     -27.692
  C       53.177     -43.060     -27.398
  C       53.048     -41.838     -28.033
  C       52.143     -41.787     -29.107
  N       51.956     -40.669     -29.886
  N       53.911     -40.913     -27.476
  C       54.565     -41.574     -26.542
  N       54.157     -42.876     -26.459
  O       56.295     -41.715     -20.256
  O       56.538     -39.906     -22.059
  H       57.971     -43.905     -26.537
  H       56.485     -40.971     -19.656
  H       51.081     -44.895     -28.985
  H       55.355     -41.172     -25.925
  H       54.540     -44.896     -26.255
  H       56.481     -42.690     -25.306
  H       57.481     -44.299     -23.835
  H       55.003     -45.548     -23.190
  H       54.387     -43.433     -21.937
  H       51.367     -40.758     -30.700
  H       52.546     -39.864     -29.736
  H       55.978     -44.113     -21.520
  P       57.475     -46.997     -23.834
  C       55.960     -48.973     -24.596
  O       57.282     -48.480     -24.409
  O       56.538     -46.979     -22.537
  O       58.883     -46.626     -23.501
  H       57.070     -47.116     -21.733
  H       56.002     -49.970     -24.983
  H       55.439     -48.344     -25.287
  H       55.445     -48.976     -23.658

 6  7  8  9  10  11  12  13  14  15  25  28  32  33  34  35 0
 6-311+G(2d,p)
 ****
 36  39  40 0
 6-311+G(2d,p)
 ****
 1  2  3  4  5  16  17  18  19  20  21  22  23  24 0
 3-21G
 ****
 26  27  29  30  31  37  38  41  42  43  44  45  46  47 0
 3-21G
 ****
 48 0
 3-21G
 ****


