%nproc=1
%NoSave
%Mem=1900MB
#P OB98/GEN NMR

erre ene a

0 1
  C     -443.839    -609.655      41.031
  O     -444.044    -608.619      41.968
  P     -444.666    -607.222      41.501
  C     -444.332    -605.839      39.361
  O     -443.693    -606.578      40.402
  C     -443.391    -604.762      38.822
  O     -442.367    -605.335      37.981
  C     -444.085    -603.721      37.952
  O     -444.873    -602.835      38.710
  C     -442.884    -603.087      37.264
  O     -442.252    -602.116      38.115
  C     -441.959    -604.297      37.054
  N     -441.969    -604.785      35.685
  C     -440.725    -604.845      35.045
  O     -439.717    -604.428      35.604
  N     -440.663    -605.373      33.777
  C     -441.758    -605.696      33.155
  N     -441.633    -606.261      31.932
  C     -443.104    -605.490      33.742
  C     -443.131    -605.060      34.999
  O     -445.063    -606.299      42.606
  O     -445.944    -607.644      40.630
  H     -446.723    -607.132      40.946
  H     -442.910    -601.412      38.263
  H     -443.986    -605.707      33.156
  H     -444.072    -604.907      35.518
  H     -440.929    -604.047      37.336
  H     -443.163    -602.565      36.339
  H     -444.709    -604.227      37.203
  H     -442.906    -604.278      39.680
  H     -440.699    -606.405      31.572
  H     -445.239    -605.379      39.764
  H     -442.368    -606.835      31.518
  H     -444.621    -606.532      38.565
  P     -445.842    -601.845      37.895
  C     -445.471    -600.000      36.110
  O     -444.913    -600.751      37.171
  O     -446.584    -601.013      39.045
  O     -446.829    -602.533      37.005
  H     -447.506    -600.833      38.788
  H     -444.861    -599.098      35.972
  H     -446.500    -599.703      36.328
  H     -445.440    -600.587      35.191
  H     -443.418    -610.505      41.526
  H     -443.168    -609.318      40.268
  H     -444.775    -609.926      40.589

 3  4  5  6  7  8  9  10  11  12  13  24  27  28  29  30  32 0
 6-311+G(2d,p)
 ****
 34  35 0
 6-311+G(2d,p)
 ****
 1  2  14  15  16  17  18  19  20  21  22  23  25  26 0
 3-21G
 ****
 31  33  36  37  38  39  40  41  42  43  44  45  46 0
 3-21G
 ****


