%nproc=1
%NoSave
%Mem=1900MB
#P OB98/GEN NMR

erre ene a

0 1
  C     -553.037    -396.789    -165.828
  O     -552.912    -397.962    -165.041
  P     -553.086    -397.888    -163.456
  C     -555.656    -397.866    -163.370
  O     -554.464    -397.121    -163.144
  C     -556.475    -397.959    -162.080
  O     -555.661    -398.501    -161.014
  C     -556.976    -396.611    -161.565
  O     -558.099    -396.189    -162.328
  C     -557.295    -396.959    -160.113
  O     -558.566    -397.602    -159.996
  C     -556.159    -397.944    -159.772
  N     -554.209    -397.210    -155.122
  C     -555.375    -397.731    -155.525
  N     -555.850    -397.857    -156.795
  C     -554.969    -397.355    -157.669
  C     -553.754    -396.762    -157.403
  C     -553.350    -396.714    -156.046
  N     -552.128    -396.257    -155.618
  N     -553.144    -396.341    -158.569
  C     -553.994    -396.663    -159.522
  N     -555.079    -397.342    -159.036
  O     -551.899    -397.377    -162.713
  O     -553.413    -399.395    -163.040
  H     -558.633    -397.949    -159.082
  H     -552.719    -399.712    -162.425
  H     -556.033    -398.102    -154.740
  H     -553.848    -396.453    -160.586
  H     -556.531    -398.798    -159.178
  H     -557.311    -396.071    -159.472
  H     -556.177    -395.887    -161.607
  H     -557.288    -398.651    -162.256
  H     -555.380    -398.867    -163.709
  H     -551.895    -396.400    -154.660
  H     -551.376    -396.161    -156.306
  H     -556.242    -397.379    -164.156
  P     -558.547    -394.653    -162.269
  C     -557.253    -394.153    -164.421
  O     -557.456    -393.803    -163.059
  O     -558.896    -394.129    -160.911
  O     -559.816    -394.588    -163.240
  H     -560.450    -393.929    -162.915
  H     -556.653    -395.058    -164.488
  H     -556.719    -393.346    -164.915
  H     -558.224    -394.311    -164.923
  H     -552.889    -397.034    -166.859
  H     -552.302    -396.074    -165.522
  H     -554.014    -396.374    -165.696

 3  4  5  6  7  8  9  10  11  12  22  25  29  30  31  32 0
 6-311+G(2d,p)
 ****
 33  36  37 0
 6-311+G(2d,p)
 ****
 1  2  13  14  15  16  17  18  19  20  21  23  24  26 0
 3-21G
 ****
 27  28  34  35  38  39  40  41  42  43  44  45  46  47  48 0
 3-21G
 ****


