%nproc=1
%NoSave
%Mem=1900MB
#P OB98/GEN NMR

erre ene a

0 1
  C       22.322     -61.414     -44.388
  O       21.214     -61.508     -45.269
  P       21.436     -61.605     -46.854
  C       19.718     -63.269     -47.800
  O       19.996     -61.906     -47.500
  C       18.716     -63.374     -48.948
  O       17.380     -63.186     -48.421
  C       18.930     -62.330     -50.038
  O       18.624     -62.916     -51.306
  C       17.890     -61.261     -49.744
  O       17.538     -60.538     -50.935
  C       16.761     -62.099     -49.135
  N       12.393     -59.471     -48.518
  C       12.894     -60.140     -49.578
  N       14.072     -60.794     -49.679
  C       14.735     -60.759     -48.512
  C       14.347     -60.120     -47.344
  C       13.115     -59.447     -47.372
  N       12.598     -58.774     -46.285
  N       15.305     -60.277     -46.359
  C       16.239     -61.015     -46.918
  N       15.937     -61.341     -48.213
  O       22.515     -62.539     -47.283
  O       21.731     -60.103     -47.313
  H       18.376     -60.255     -51.359
  H       22.412     -60.090     -48.012
  H       12.268     -60.149     -50.466
  H       17.153     -61.331     -46.436
  H       16.113     -62.527     -49.910
  H       18.295     -60.544     -49.021
  H       19.949     -61.926     -50.047
  H       18.766     -64.388     -49.365
  H       19.293     -63.738     -46.906
  H       11.655     -58.426     -46.360
  H       13.048     -58.902     -45.388
  H       20.651     -63.784     -48.051
  P       19.683     -62.628     -52.488
  C       18.565     -64.653     -53.682
  O       19.051     -63.333     -53.780
  O       21.071     -63.022     -52.103
  O       19.470     -61.056     -52.719
  H       18.573     -60.769     -52.436
  H       18.214     -64.971     -54.671
  H       17.725     -64.697     -52.985
  H       19.358     -65.332     -53.355
  H       21.971     -61.359     -43.379
  H       22.887     -60.535     -44.618
  H       22.944     -62.277     -44.503

 3  4  5  6  7  8  9  10  11  12  22  25  29  30  31  32 0
 6-311+G(2d,p)
 ****
 33  36  37 0
 6-311+G(2d,p)
 ****
 1  2  13  14  15  16  17  18  19  20  21  23  24  26 0
 3-21G
 ****
 27  28  34  35  38  39  40  41  42  43  44  45  46  47  48 0
 3-21G
 ****


