%nproc=1
%NoSave
%Mem=1900MB
#P OB98/GEN NMR

erre ene a

0 1
  C      777.251     617.189    -742.013
  O      776.182     616.259    -742.036
  H      778.032     616.810    -741.347
  H      776.911     618.156    -741.635
  H      777.672     617.305    -743.018
  P      774.872     616.618    -742.882
  C      774.960     614.755    -744.677
  O      775.152     616.136    -744.386
  C      774.939     614.527    -746.187
  O      773.719     615.041    -746.761
  C      776.075     615.219    -746.934
  O      777.293     614.519    -746.748
  C      775.526     615.196    -748.352
  O      775.693     613.903    -748.955
  C      774.024     615.495    -748.100
  N      773.672     616.900    -748.266
  C      773.150     617.258    -749.516
  O      773.029     616.415    -750.407
  N      772.802     618.569    -749.728
  C      772.918     619.440    -748.771
  N      772.551     620.720    -749.039
  C      773.425     619.097    -747.430
  C      773.797     617.823    -747.252
  O      774.381     618.033    -742.770
  O      773.778     615.574    -742.365
  H      776.643     613.693    -748.886
  H      773.247     615.964    -741.650
  H      773.497     619.845    -746.661
  H      774.179     617.484    -746.299
  H      773.402     614.905    -748.785
  H      776.025     615.916    -749.000
  H      776.159     616.264    -746.612
  H      774.953     613.439    -746.365
  H      772.188     620.903    -749.971
  H      773.995     614.470    -744.242
  H      772.445     621.431    -748.336
  H      775.739     614.145    -744.213
  P      778.697     615.163    -747.182
  C      779.804     615.406    -744.868
  O      779.158     616.082    -745.944
  O      778.700     615.849    -748.507
  O      779.715     613.928    -747.096
  H      779.608     613.341    -747.887
  H      780.064     616.112    -744.107
  H      780.691     614.928    -745.228
  H      779.142     614.670    -744.461

 6  7  8  9  10  11  12  13  14  15  16  26  30  31  32  33  35 0
 6-311+G(2d,p)
 ****
 37  38 0
 6-311+G(2d,p)
 ****
 1  2  3  4  5  17  18  19  20  21  22  23  24  25 0
 3-21G
 ****
 27  28  29  34  36  39  40  41  42  43  44  45  46 0
 3-21G
 ****


