%nproc=1
%NoSave
%Mem=1900MB
#P OB98/GEN NMR

erre ene a

0 1
  C      207.432     577.586     154.075
  O      208.108     576.450     153.573
  H      206.357     577.450     153.926
  H      207.754     578.483     153.539
  H      207.625     577.700     155.146
  P      209.706     576.441     153.721
  C      211.603     578.002     152.867
  O      210.258     577.559     152.712
  C      212.220     578.262     151.495
  O      211.319     579.074     150.703
  C      213.527     579.036     151.547
  O      214.623     578.216     151.897
  C      213.606     579.576     150.122
  O      214.149     578.599     149.221
  C      212.132     579.848     149.786
  N      213.444     584.545     148.275
  C      213.912     583.322     147.925
  N      213.493     582.113     148.368
  C      212.476     582.251     149.240
  C      211.900     583.427     149.686
  C      212.422     584.620     149.157
  N      211.973     585.872     149.527
  N      210.907     583.169     150.605
  C      210.877     581.853     150.712
  N      211.804     581.256     149.901
  O      210.125     575.061     153.025
  O      210.215     576.533     155.121
  H      215.032     578.368     149.574
  H      210.288     574.386     153.712
  H      214.718     583.313     147.209
  H      210.215     581.295     151.360
  H      211.873     579.529     148.772
  H      214.240     580.458     150.079
  H      213.438     579.884     152.237
  H      212.352     577.300     150.978
  H      212.184     577.227     153.382
  H      211.606     578.911     153.469
  H      212.445     586.682     149.163
  H      211.291     585.940     150.270
  P      216.020     578.937     152.227
  C      217.806     580.196     150.807
  O      216.728     579.267     150.830
  O      216.918     577.772     152.850
  O      215.908     580.109     153.150
  H      217.495     578.131     153.554
  H      218.164     580.303     149.804
  H      218.598     579.839     151.432
  H      217.467     581.145     151.167

 6  7  8  9  10  11  12  13  14  15  25  28  32  33  34  35 0
 6-311+G(2d,p)
 ****
 36  37  40 0
 6-311+G(2d,p)
 ****
 1  2  3  4  5  16  17  18  19  20  21  22  23  24 0
 3-21G
 ****
 26  27  29  30  31  38  39 41  42  43  44  45  46  47  48 0
 3-21G
 ****


