%nproc=1
%NoSave
%Mem=1900MB
#P OB98/GEN NMR

erre ene a

0 1
  C      190.424     -18.598    -230.860
  O      190.580     -19.759    -231.681
  P      191.124     -19.517    -233.177
  C      193.720     -19.552    -232.991
  O      192.535     -20.273    -233.299
  C      194.692     -19.582    -234.168
  O      195.875     -18.814    -233.881
  C      195.199     -20.971    -234.524
  O      194.252     -21.696    -235.293
  C      196.426     -20.633    -235.359
  O      196.032     -20.341    -236.712
  C      196.958     -19.366    -234.669
  N      201.957     -20.161    -234.411
  C      201.152     -19.936    -235.510
  N      201.772     -19.891    -236.709
  N      199.857     -19.772    -235.442
  C      199.378     -19.812    -234.175
  C      200.071     -20.026    -233.007
  C      201.501     -20.240    -233.100
  O      202.255     -20.475    -232.161
  N      199.243     -19.990    -231.917
  C      198.054     -19.723    -232.418
  N      198.082     -19.621    -233.788
  O      191.536     -17.970    -233.162
  O      190.126     -19.822    -234.241
  H      195.824     -21.196    -237.140
  H      191.477     -17.600    -234.062
  H      202.948     -20.289    -234.522
  H      197.149     -19.592    -231.839
  H      197.257     -18.601    -235.395
  H      197.146     -21.456    -235.410
  H      202.772     -19.939    -236.827
  H      195.504     -21.521    -233.624
  H      201.203     -19.693    -237.522
  H      194.189     -19.135    -235.035
  H      194.200     -19.987    -232.111
  H      193.451     -18.523    -232.730
  P      193.857     -23.164    -234.780
  C      192.449     -22.534    -232.694
  O      192.452     -22.993    -234.032
  O      194.901     -23.425    -233.595
  O      193.921     -24.224    -235.827
  H      195.075     -24.381    -233.504
  H      193.152     -21.708    -232.557
  H      192.713     -23.356    -232.022
  H      191.444     -22.183    -232.443
  H      190.059     -18.889    -229.897
  H      189.727     -17.928    -231.318
  H      191.369     -18.109    -230.750

 3  4  5  6  7  8  9  10  11  12  23  26  30  31  33  0
 6-311+G(2d,p)
 ****
 35  36  37  38 0
 6-311+G(2d,p)
 ****
 1  2  13  14  15  16  17  18  19  20  21  22  24  25  27  28  29 0
 3-21G
 ****
 32  34  39  40  41  42  43  44  45  46  47  48  49 0
 3-21G
 ****


