%nproc=1
%NoSave
%Mem=1900MB
#P OB98/GEN NMR

erre ene a

0 1
  C     -222.846    -203.828     618.594
  O     -223.984    -204.566     618.189
  H     -222.889    -202.837     618.133
  H     -221.926    -204.323     618.273
  H     -222.842    -203.707     619.681
  P     -224.023    -206.136     618.525
  C     -224.520    -205.468     620.972
  O     -223.706    -206.248     620.097
  C     -224.708    -206.173     622.318
  O     -225.503    -207.365     622.147
  C     -223.409    -206.648     622.951
  O     -222.573    -205.604     623.405
  C     -223.891    -207.709     623.928
  O     -224.279    -207.180     625.193
  C     -225.129    -208.281     623.196
  N     -224.890    -209.625     622.687
  C     -225.434    -210.665     623.437
  O     -226.058    -210.492     624.487
  N     -225.193    -211.929     622.967
  C     -224.443    -212.240     621.870
  O     -224.230    -213.399     621.527
  C     -223.874    -211.101     621.133
  C     -224.122    -209.867     621.565
  O     -223.154    -207.006     617.666
  O     -225.578    -206.502     618.445
  H     -224.738    -207.895     625.672
  H     -225.711    -207.477     618.369
  H     -225.585    -212.692     623.493
  H     -223.271    -211.316     620.261
  H     -223.712    -209.006     621.037
  H     -225.984    -208.329     623.884
  H     -223.117    -208.455     624.118
  H     -222.832    -207.177     622.183
  H     -225.252    -205.496     622.988
  H     -225.496    -205.338     620.492
  H     -224.068    -204.481     621.116
  P     -221.046    -205.820     623.822
  C     -220.236    -205.092     621.461
  O     -220.196    -206.088     622.481
  O     -220.789    -206.684     625.016
  O     -220.607    -204.317     624.207
  H     -219.960    -204.381     624.941
  H     -219.630    -205.402     620.636
  H     -219.863    -204.168     621.850
  H     -221.245    -204.959     621.132

 6  7  8  9  10  11  12  13  14  15  16  26  31  32  33  34  35 0
 6-311+G(2d,p)
 ****
 36  37 0
 6-311+G(2d,p)
 ****
 1  2  3  4  5  17  18  19  20  21  22  23  24  25 0
 3-21G
 ****
 27  28  29  30  38  39  40  41  42  43  44  45 0
 3-21G
 ****


