%nproc=1
%NoSave
%Mem=1900MB
#P OB98/GEN NMR

erre ene a

0 1
  C      278.585    -715.620     324.045
  O      278.131    -715.799     325.383
  P      279.177    -715.508     326.558
  C      277.256    -714.550     328.020
  O      278.315    -715.498     327.914
  C      276.844    -714.369     329.478
  O      278.017    -714.279     330.303
  C      276.046    -713.103     329.751
  O      274.673    -713.256     329.425
  C      276.226    -712.971     331.259
  O      275.295    -713.818     331.944
  C      277.672    -713.472     331.465
  N      279.618    -709.970     334.555
  C      278.628    -710.897     334.788
  N      278.091    -710.908     336.030
  N      278.196    -711.736     333.883
  C      278.836    -711.633     332.704
  C      279.837    -710.747     332.340
  C      280.277    -709.791     333.334
  O      281.107    -708.907     333.176
  N      280.260    -710.952     331.055
  C      279.548    -711.987     330.644
  N      278.648    -712.412     331.598
  O      279.543    -713.958     326.345
  O      280.395    -716.371     326.561
  H      275.475    -713.736     332.902
  H      280.426    -713.777     326.721
  H      279.930    -709.358     335.294
  H      279.648    -712.454     329.669
  H      277.740    -714.127     332.341
  H      276.051    -711.948     331.623
  H      278.479    -710.379     336.802
  H      276.491    -712.235     329.254
  H      277.393    -711.610     336.225
  H      276.279    -715.260     329.785
  H      276.395    -714.907     327.443
  H      277.596    -713.599     327.588
  P      273.820    -711.897     329.286
  C      271.954    -713.582     328.620
  O      272.285    -712.372     329.272
  O      274.103    -711.425     327.788
  O      274.174    -710.839     330.287
  H      273.990    -710.461     327.711
  H      272.738    -714.335     328.760
  H      271.812    -713.403     327.555
  H      271.018    -713.964     329.047
  H      277.790    -715.847     323.365
  H      279.412    -716.273     323.858
  H      278.894    -714.605     323.906

 3  4  5  6  7  8  9  10  11  12  23  26  30  31  33  0
 6-311+G(2d,p)
 ****
 35  36  37  38 0
 6-311+G(2d,p)
 ****
 1  2  13  14  15  16  17  18  19  20  21  22  24  25  27  28  29 0
 3-21G
 ****
 32  34  39  40  41  42  43  44  45  46  47  48  49 0
 3-21G
 ****


