%nproc=1
%NoSave
%Mem=1900MB
#P OB98/GEN NMR

erre ene a

0 1
  C     1121.475     288.884     372.937
  O     1122.816     289.251     372.772
  P     1123.953     288.161     373.189
  C     1124.928     287.565     370.842
  O     1125.111     288.293     372.069
  C     1126.113     287.792     369.924
  O     1126.172     289.198     369.524
  C     1127.480     287.469     370.501
  O     1127.773     286.081     370.433
  C     1128.384     288.259     369.568
  O     1128.565     287.539     368.328
  C     1127.562     289.542     369.314
  N     1131.463     292.400     370.987
  C     1131.409     291.311     370.192
  N     1130.341     290.591     369.793
  C     1129.216     291.067     370.367
  C     1129.117     292.170     371.248
  C     1130.293     292.823     371.542
  N     1130.342     293.956     372.357
  N     1127.798     292.334     371.626
  C     1127.138     291.422     370.985
  N     1127.936     290.632     370.188
  O     1123.240     286.777     372.850
  O     1124.404     288.250     374.600
  H     1129.045     286.713     368.550
  H     1123.652     286.060     373.386
  H     1132.369     290.974     369.789
  H     1126.068     291.280     371.027
  H     1127.641     289.889     368.298
  H     1129.372     288.430     369.986
  H     1127.572     287.855     371.511
  H     1125.914     287.209     369.001
  H     1124.007     287.879     370.367
  H     1131.193     294.461     372.375
  H     1129.462     294.389     372.610
  H     1124.837     286.479     371.107
  P     1128.901     285.527     371.433
  C     1127.324     283.936     372.757
  O     1128.418     284.059     371.831
  O     1128.662     286.411     372.773
  O     1130.279     285.666     370.901
  H     1129.472     286.465     373.268
  H     1126.930     282.903     372.668
  H     1126.510     284.619     372.497
  H     1127.658     284.112     373.761
  H     1120.844     289.690     372.626
  H     1121.290     288.663     373.968
  H     1121.267     288.018     372.344

 3  4  5  6  7  8  9  10  11  12  22  25  29  30  31  32 0
 6-311+G(2d,p)
 ****
 33  36  37 0
 6-311+G(2d,p)
 ****
 1  2  13  14  15  16  17  18  19  20  21  23  24  26 0
 3-21G
 ****
 27  28  34  35  38  39  40  41  42  43  44  45  46  47  48 0
 3-21G
 ****


