%nproc=1
%NoSave
%Mem=1900MB
#P OB98/GEN NMR

erre ene a

0 1
  C     1139.486    -169.739     894.985
  O     1139.731    -170.932     895.760
  P     1139.155    -170.905     897.263
  C     1141.538    -171.694     897.976
  O     1140.133    -171.819     898.167
  C     1142.315    -172.639     898.918
  O     1142.015    -172.337     900.293
  C     1141.965    -174.099     898.724
  O     1142.625    -174.667     897.591
  C     1142.478    -174.694     900.043
  O     1143.906    -174.939     899.931
  C     1142.202    -173.582     901.053
  N     1139.770    -176.856     904.070
  C     1140.997    -176.979     903.437
  N     1141.686    -178.110     903.652
  N     1141.501    -176.038     902.643
  C     1140.729    -174.943     902.532
  C     1139.474    -174.693     903.129
  C     1138.938    -175.750     903.971
  O     1137.840    -175.691     904.516
  N     1139.008    -173.449     902.815
  C     1139.939    -172.938     902.047
  N     1141.019    -173.802     901.849
  O     1137.829    -171.828     897.173
  O     1138.862    -169.551     897.799
  H     1144.023    -175.537     899.162
  H     1137.189    -171.561     897.841
  H     1139.430    -177.579     904.641
  H     1139.935    -171.935     901.618
  H     1143.054    -173.417     901.733
  H     1141.995    -175.652     900.278
  H     1141.388    -178.808     904.287
  H     1140.841    -174.243     898.665
  H     1142.607    -178.223     903.213
  H     1143.383    -172.486     898.752
  H     1141.861    -170.630     898.192
  H     1141.782    -171.887     896.919
  P     1141.808    -174.729     896.229
  C     1140.910    -177.130     896.588
  O     1141.735    -176.298     895.833
  O     1142.820    -174.125     895.181
  O     1140.519    -174.014     896.232
  H     1142.363    -173.685     894.438
  H     1139.945    -176.681     896.789
  H     1141.404    -177.388     897.539
  H     1140.746    -178.067     896.013
  H     1139.905    -169.856     894.008
  H     1139.940    -168.900     895.469
  H     1138.431    -169.577     894.904

 3  4  5  6  7  8  9  10  11  12  23  26  30  31  33  0
 6-311+G(2d,p)
 ****
 35  36  37  38 0
 6-311+G(2d,p)
 ****
 1  2  13  14  15  16  17  18  19  20  21  22  24  25  27  28  29 0
 3-21G
 ****
 32  34  39  40  41  42  43  44  45  46  47  48  49 0
 3-21G
 ****


