%nproc=1
%NoSave
%Mem=1900MB
#P OB98/GEN NMR

erre ene a

0 1
  C      287.971    -188.818    1191.156
  O      287.027    -188.616    1192.214
  P      286.401    -187.163    1192.542
  C      284.451    -187.056    1190.841
  O      285.754    -186.574    1191.187
  C      283.377    -185.990    1191.042
  O      283.507    -184.946    1190.045
  C      281.942    -186.497    1190.911
  O      281.539    -187.158    1192.107
  C      281.195    -185.200    1190.606
  O      280.946    -184.469    1191.813
  C      282.202    -184.457    1189.728
  N      282.900    -182.400    1185.074
  C      283.333    -182.024    1186.313
  N      283.101    -182.620    1187.501
  C      282.354    -183.745    1187.330
  C      281.861    -184.256    1186.143
  C      282.154    -183.532    1184.975
  N      281.717    -183.908    1183.724
  N      281.126    -185.401    1186.366
  C      281.213    -185.581    1187.674
  N      281.942    -184.617    1188.297
  O      287.343    -186.229    1193.234
  O      285.114    -187.475    1193.460
  H      281.788    -184.425    1192.309
  H      284.951    -186.708    1194.043
  H      283.938    -181.126    1186.338
  H      280.752    -186.411    1188.214
  H      282.204    -183.371    1189.938
  H      280.222    -185.383    1190.123
  H      281.874    -187.180    1190.057
  H      283.537    -185.525    1192.022
  H      284.226    -187.932    1191.482
  H      281.937    -183.322    1182.921
  H      281.110    -184.721    1183.639
  H      284.477    -187.392    1189.798
  P      280.018    -187.648    1192.276
  C      280.260    -189.638    1190.675
  O      279.612    -188.404    1190.927
  O      279.056    -186.600    1192.747
  O      280.138    -188.851    1193.325
  H      279.310    -188.907    1193.838
  H      281.261    -189.450    1190.267
  H      279.666    -190.203    1189.951
  H      280.356    -190.236    1191.589
  H      288.250    -189.850    1191.119
  H      288.840    -188.220    1191.335
  H      287.528    -188.535    1190.224

 3  4  5  6  7  8  9  10  11  12  22  25  29  30  31  32 0
 6-311+G(2d,p)
 ****
 33  36  37 0
 6-311+G(2d,p)
 ****
 1  2  13  14  15  16  17  18  19  20  21  23  24  26 0
 3-21G
 ****
 27  28  34  35  38  39  40  41  42  43  44  45  46  47  48 0
 3-21G
 ****


