%nproc=1
%NoSave
%Mem=1900MB
#P OB98/GEN NMR

erre ene a

0 1
  C     -118.620    -136.087      96.633
  O     -117.780    -137.216      96.395
  P     -118.185    -138.635      97.029
  C     -118.642    -139.679      94.723
  O     -117.915    -139.786      95.938
  C     -118.109    -140.625      93.638
  O     -116.855    -140.134      93.093
  C     -117.866    -142.065      94.117
  O     -118.197    -142.933      93.029
  C     -116.372    -142.074      94.372
  O     -115.833    -143.385      94.423
  C     -115.888    -141.200      93.211
  N     -114.542    -140.688      93.419
  C     -113.481    -141.560      93.164
  O     -113.703    -142.736      92.882
  N     -112.194    -141.076      93.270
  C     -111.996    -139.882      93.735
  N     -110.714    -139.432      93.805
  C     -113.092    -138.996      94.183
  C     -114.326    -139.451      93.974
  O     -119.529    -138.687      97.677
  O     -117.018    -138.891      98.105
  H     -116.010    -143.838      93.569
  H     -117.397    -139.363      98.869
  H     -112.875    -138.044      94.642
  H     -115.196    -138.877      94.264
  H     -115.902    -141.762      92.267
  H     -116.159    -141.585      95.332
  H     -118.468    -142.343      94.988
  H     -118.841    -140.635      92.812
  H     -109.969    -140.057      93.516
  H     -118.589    -138.649      94.361
  H     -110.481    -138.494      94.107
  H     -119.707    -139.868      94.925
  P     -119.456    -143.924      93.175
  C     -120.424    -143.342      90.833
  O     -119.934    -144.338      91.702
  O     -120.621    -142.907      93.625
  O     -119.316    -145.021      94.182
  H     -121.296    -143.404      94.117
  H     -120.435    -143.736      89.813
  H     -119.789    -142.449      90.849
  H     -121.450    -143.074      91.115
  H     -118.210    -135.228      96.144
  H     -118.681    -135.903      97.685
  H     -119.599    -136.283      96.248

 3  4  5  6  7  8  9  10  11  12  13  23  27  28  29  30  32 0
 6-311+G(2d,p)
 ****
 34  35 0
 6-311+G(2d,p)
 ****
 1  2  14  15  16  17  18  19  20  21  22  24  25  26 0
 3-21G
 ****
 31  33  36  37  38  39  40  41  42  43  44  45  46 0
 3-21G
 ****


