%nproc=1
%NoSave
%Mem=1900MB
#P OB98/GEN NMR

erre ene a

0 1
  C     1229.227    -368.103    1420.073
  O     1228.365    -367.867    1421.180
  P     1228.976    -367.126    1422.471
  C     1227.551    -364.906    1422.367
  O     1228.802    -365.546    1422.194
  C     1227.607    -363.957    1423.562
  O     1228.589    -362.947    1423.356
  C     1226.285    -363.230    1423.863
  O     1225.333    -364.059    1424.495
  C     1226.794    -362.071    1424.713
  O     1226.998    -362.489    1426.074
  C     1228.136    -361.748    1424.049
  N     1228.109    -360.599    1423.155
  C     1228.819    -359.477    1423.576
  O     1229.465    -359.440    1424.645
  N     1228.760    -358.370    1422.749
  C     1227.996    -358.267    1421.600
  O     1227.967    -357.264    1420.944
  C     1227.255    -359.479    1421.250
  C     1227.313    -360.564    1422.008
  O     1230.543    -367.400    1422.270
  O     1228.396    -367.616    1423.757
  H     1230.780    -367.533    1421.322
  H     1226.128    -362.723    1426.447
  H     1229.273    -357.572    1423.026
  H     1226.648    -359.456    1420.336
  H     1226.765    -361.438    1421.763
  H     1228.921    -361.544    1424.824
  H     1226.100    -361.222    1424.733
  H     1225.866    -362.815    1422.900
  H     1227.901    -364.546    1424.472
  H     1226.754    -365.664    1422.544
  H     1227.308    -364.341    1421.465
  P     1223.879    -364.122    1423.804
  C     1224.335    -366.354    1422.512
  O     1224.064    -365.000    1422.440
  O     1223.684    -362.611    1423.331
  O     1222.819    -364.645    1424.753
  H     1224.491    -362.241    1422.934
  H     1224.071    -366.798    1421.535
  H     1223.765    -366.841    1423.302
  H     1225.413    -366.526    1422.685
  H     1228.683    -368.599    1419.297
  H     1230.046    -368.717    1420.383
  H     1229.600    -367.170    1419.706

 3  4  5  6  7  8  9  10  11  12  13  24  28  29  30  31  32 0
 6-311+G(2d,p)
 ****
 33  34 0
 6-311+G(2d,p)
 ****
 1  2  14  15  16  17  18  19  20  21  22  23  25  26  27 0
 3-21G
 ****
 35  36  37  38  39  40  41  42  43  44  45 0
 3-21G
 ****


