%nproc=1
%NoSave
%Mem=1900MB
#P OB98/GEN NMR

erre ene a

0 1
  C       69.148    -209.782     156.981
  O       68.335    -209.959     158.120
  H       69.495    -208.744     156.960
  H       68.576    -209.971     156.070
  H       70.019    -210.442     157.022
  P       67.649    -211.387     158.381
  C       66.309    -212.318     160.364
  O       66.646    -211.154     159.620
  C       66.154    -211.996     161.851
  O       67.458    -211.708     162.423
  C       65.250    -210.785     162.130
  O       64.324    -211.102     163.172
  C       66.220    -209.720     162.619
  O       65.599    -208.732     163.436
  C       67.278    -210.587     163.308
  N       68.516    -209.858     163.546
  C       68.788    -209.515     164.875
  O       68.001    -209.836     165.769
  N       69.904    -208.775     165.152
  C       70.665    -208.366     164.184
  N       71.740    -207.611     164.523
  C       70.400    -208.682     162.763
  C       69.324    -209.427     162.519
  O       68.607    -212.517     158.549
  O       66.646    -211.593     157.152
  H       65.144    -209.184     164.179
  H       66.461    -212.555     157.046
  H       71.063    -208.314     161.990
  H       69.049    -209.706     161.507
  H       66.906    -210.970     164.269
  H       66.663    -209.211     161.753
  H       64.698    -210.451     161.253
  H       65.785    -212.894     162.365
  H       71.880    -207.415     165.510
  H       67.095    -213.069     160.214
  H       72.387    -207.221     163.858
  H       65.360    -212.709     159.982
  P       62.771    -211.109     162.760
  C       60.889    -212.834     163.221
  O       62.005    -212.127     163.737
  O       62.767    -211.854     161.344
  O       62.174    -209.745     162.665
  H       62.558    -211.217     160.636
  H       60.486    -213.469     163.982
  H       61.198    -213.429     162.387
  H       60.141    -212.138     162.904

 6  7  8  9  10  11  12  13  14  15  16  26  30  31  32  33  35 0
 6-311+G(2d,p)
 ****
 37  38 0
 6-311+G(2d,p)
 ****
 1  2  3  4  5  17  18  19  20  21  22  23  24  25 0
 3-21G
 ****
 27  28  29  34  36  39  40  41  42  43  44  45  46 0
 3-21G
 ****


