%nproc=1
%NoSave
%Mem=1900MB
#P OB98/GEN NMR

erre ene a

0 1
  C      262.399     153.174    -333.998
  O      263.158     153.924    -333.058
  P      264.576     154.505    -333.547
  C      265.819     156.765    -333.233
  O      264.620     156.024    -333.035
  C      265.516     158.256    -333.351
  O      264.742     158.512    -334.543
  C      264.701     158.833    -332.205
  O      265.504     159.138    -331.077
  C      264.169     160.104    -332.836
  O      265.185     161.121    -332.829
  C      263.883     159.651    -334.274
  N      259.088     161.394    -334.662
  C      260.253     162.016    -334.367
  N      261.486     161.477    -334.271
  C      261.447     160.152    -334.481
  C      260.330     159.378    -334.753
  C      259.104     160.053    -334.855
  N      257.922     159.423    -335.190
  N      260.684     158.053    -334.905
  C      261.987     158.031    -334.738
  N      262.498     159.276    -334.487
  O      264.381     154.657    -335.128
  O      265.755     153.660    -333.204
  H      265.943     160.768    -333.334
  H      265.247     154.646    -335.575
  H      260.180     163.086    -334.189
  H      262.607     157.141    -334.794
  H      264.127     160.426    -335.012
  H      263.303     160.514    -332.305
  H      263.862     158.171    -331.945
  H      266.472     158.788    -333.450
  H      266.300     156.423    -334.152
  H      257.133     160.002    -335.420
  H      257.972     158.469    -335.527
  H      266.494     156.579    -332.389
  P      264.740     159.368    -329.681
  C      265.496     159.112    -327.204
  O      265.711     158.766    -328.561
  O      263.535     158.319    -329.751
  O      264.261     160.764    -329.466
  H      262.788     158.613    -329.193
  H      266.022     158.403    -326.570
  H      264.430     159.087    -326.958
  H      265.887     160.118    -327.015
  H      261.486     152.851    -333.543
  H      262.963     152.320    -334.311
  H      262.177     153.786    -334.847

 3  4  5  6  7  8  9  10  11  12  22  25  29  30  31  32 0
 6-311+G(2d,p)
 ****
 33  36  37 0
 6-311+G(2d,p)
 ****
 1  2  13  14  15  16  17  18  19  20  21  23  24  26 0
 3-21G
 ****
 27  28  34  35  38  39  40  41  42  43  44  45  46  47  48 0
 3-21G
 ****


