%nproc=1
%NoSave
%Mem=1900MB
#P OB98/GEN NMR

erre ene a

0 1
  C      -34.498     -70.047     227.955
  O      -35.282     -69.576     226.874
  H      -33.992     -70.966     227.647
  H      -35.142     -70.268     228.810
  H      -33.746     -69.305     228.235
  P      -35.919     -68.116     227.042
  C      -34.228     -67.143     225.290
  O      -34.802     -67.052     226.586
  C      -34.489     -65.858     224.510
  O      -35.889     -65.518     224.537
  C      -33.809     -64.628     225.087
  O      -32.416     -64.623     224.868
  C      -34.545     -63.523     224.341
  O      -33.970     -63.281     223.052
  C      -35.970     -64.112     224.205
  N      -36.928     -63.401     225.031
  C      -38.124     -63.048     224.392
  O      -38.312     -63.359     223.216
  N      -39.052     -62.322     225.092
  C      -38.799     -61.956     226.309
  N      -39.748     -61.209     226.935
  C      -37.552     -62.305     227.018
  C      -36.667     -63.023     226.326
  O      -35.965     -67.940     228.630
  O      -37.235     -67.928     226.368
  H      -33.109     -62.844     223.213
  H      -35.129     -68.159     229.073
  H      -37.395     -61.987     228.038
  H      -35.725     -63.323     226.768
  H      -36.310     -64.057     223.162
  H      -34.511     -62.577     224.888
  H      -34.045     -64.533     226.155
  H      -34.191     -66.026     223.466
  H      -40.563     -60.945     226.394
  H      -34.633     -68.005     224.750
  H      -39.628     -60.803     227.851
  H      -33.152     -67.304     225.412
  P      -31.516     -63.362     225.266
  C      -30.827     -64.335     227.550
  O      -31.510     -63.286     226.872
  O      -31.876     -62.081     224.594
  O      -30.028     -63.866     224.953
  H      -29.751     -64.656     225.449
  H      -30.891     -64.178     228.606
  H      -29.799     -64.343     227.252
  H      -31.278     -65.273     227.301

 6  7  8  9  10  11  12  13  14  15  16  26  30  31  32  33  35 0
 6-311+G(2d,p)
 ****
 37  38 0
 6-311+G(2d,p)
 ****
 1  2  3  4  5  17  18  19  20  21  22  23  24  25 0
 3-21G
 ****
 27  28  29  34  36  39  40  41  42  43  44  45  46 0
 3-21G
 ****


