%nproc=1
%NoSave
%Mem=1900MB
#P OB98/GEN NMR

erre ene a

0 1
  C       29.184     -44.196    -164.134
  O       30.485     -44.730    -164.263
  H       29.239     -43.287    -163.531
  H       28.527     -44.909    -163.632
  H       28.778     -43.940    -165.116
  P       30.678     -46.109    -165.054
  C       32.942     -46.157    -166.293
  O       32.253     -46.416    -165.074
  C       33.334     -44.676    -166.375
  O       34.107     -44.358    -165.192
  C       34.188     -44.362    -167.611
  O       33.670     -43.283    -168.385
  C       35.593     -44.221    -167.035
  O       36.455     -43.401    -167.795
  C       35.336     -43.734    -165.606
  N       36.415     -44.050    -164.672
  C       37.095     -42.981    -164.095
  O       36.850     -41.795    -164.300
  N       38.106     -43.320    -163.231
  C       38.500     -44.584    -162.910
  O       39.411     -44.824    -162.127
  C       37.762     -45.670    -163.574
  C       36.771     -45.359    -164.411
  O       30.011     -46.187    -166.386
  O       30.110     -47.217    -164.048
  H       36.260     -42.471    -167.550
  H       29.237     -47.524    -164.360
  H       38.595     -42.555    -162.795
  H       38.059     -46.687    -163.351
  H       36.205     -46.135    -164.916
  H       35.192     -42.652    -165.589
  H       36.050     -45.217    -166.994
  H       34.178     -45.203    -168.315
  H       32.423     -44.069    -166.347
  H       32.274     -46.419    -167.119
  H       33.840     -46.781    -166.347
  P       32.417     -43.377    -169.366
  C       31.084     -41.116    -169.208
  O       32.058     -41.906    -169.877
  O       31.281     -44.221    -168.895
  O       33.021     -44.074    -170.689
  H       32.295     -44.604    -171.076
  H       30.991     -40.171    -169.702
  H       31.387     -40.960    -168.194
  H       30.141     -41.622    -169.225

 6  7  8  9  10  11  12  13  14  15  16  26  31  32  33  34  35 0
 6-311+G(2d,p)
 ****
 36  37 0
 6-311+G(2d,p)
 ****
 1  2  3  4  5  17  18  19  20  21  22  23  24  25 0
 3-21G
 ****
 27  28  29  30  38  39  40  41  42  43  44  45 0
 3-21G
 ****


