%nproc=1
%NoSave
%Mem=1900MB
#P OB98/GEN NMR

erre ene a

0 1
  C       88.174     -27.635     211.393
  O       89.461     -28.205     211.272
  H       87.592     -27.900     210.506
  H       88.247     -26.546     211.448
  H       87.660     -28.019     212.277
  P       90.480     -28.082     212.503
  C       90.403     -28.687     215.006
  O       89.647     -28.421     213.831
  C       89.610     -28.265     216.241
  O       89.416     -26.834     216.247
  C       88.212     -28.873     216.313
  O       88.274     -30.230     216.705
  C       87.555     -27.938     217.316
  O       87.933     -28.271     218.659
  C       88.156     -26.572     216.905
  N       87.263     -25.793     216.045
  C       86.639     -24.700     216.638
  O       86.806     -24.385     217.814
  N       85.774     -24.002     215.837
  C       85.415     -24.341     214.564
  O       84.479     -23.820     213.966
  C       86.162     -25.458     213.967
  C       87.027     -26.132     214.728
  O       91.276     -26.821     212.561
  O       91.425     -29.365     212.338
  H       92.271     -29.092     211.933
  H       87.718     -29.217     218.781
  H       85.280     -23.235     216.272
  H       85.952     -25.717     212.935
  H       87.566     -26.978     214.316
  H       88.382     -25.970     217.795
  H       86.464     -27.979     217.271
  H       87.706     -28.769     215.346
  H       90.195     -28.531     217.131
  H       91.335     -28.113     214.960
  H       90.644     -29.755     215.045
  P       87.124     -31.263     216.292
  C       86.545     -32.522     214.137
  O       87.056     -31.319     214.691
  O       85.806     -31.044     216.960
  O       87.726     -32.699     216.676
  H       87.087     -33.170     217.246
  H       86.544     -32.451     213.069
  H       85.545     -32.678     214.485
  H       87.160     -33.343     214.439

 6  7  8  9  10  11  12  13  14  15  16  27  31  32  33  34  35 0
 6-311+G(2d,p)
 ****
 36  37 0
 6-311+G(2d,p)
 ****
 1  2  3  4  5  17  18  19  20  21  22  23  24  25 0
 3-21G
 ****
 26  28  29  30  38  39  40  41  42  43  44  45 0
 3-21G
 ****


