%nproc=1
%NoSave
%Mem=1900MB
#P OB98/GEN NMR

erre ene a

0 1
  C     -716.386     371.881      98.549
  O     -716.164     370.486      98.665
  H     -717.433     372.044      98.281
  H     -715.751     372.297      97.765
  H     -716.183     372.384      99.500
  P     -714.745     369.972      99.203
  C     -713.982     368.719      97.076
  O     -713.783     369.839      97.928
  C     -712.661     368.303      96.433
  O     -712.082     369.414      95.716
  C     -711.593     367.875      97.441
  O     -711.851     366.570      97.934
  C     -710.332     368.010      96.610
  O     -710.156     366.857      95.763
  C     -710.647     369.270      95.767
  N     -710.007     370.478      96.309
  C     -708.614     370.465      96.366
  O     -707.938     369.505      96.037
  N     -708.037     371.599      96.866
  C     -708.695     372.681      97.402
  O     -708.126     373.632      97.909
  C     -710.161     372.628      97.325
  C     -710.744     371.544      96.783
  O     -714.784     368.768     100.087
  O     -714.144     371.243      99.971
  H     -711.026     366.682      95.356
  H     -714.215     371.105     100.933
  H     -707.034     371.609      96.934
  H     -710.721     373.462      97.720
  H     -711.824     371.482      96.732
  H     -710.305     369.132      94.738
  H     -709.437     368.094      97.229
  H     -711.550     368.600      98.270
  H     -712.858     367.501      95.720
  H     -714.696     368.993      96.284
  H     -714.405     367.897      97.662
  P     -711.206     366.100      99.319
  C     -708.762     365.522      98.739
  O     -709.654     366.493      99.284
  O     -711.484     364.684      99.713
  O     -711.809     367.120     100.394
  H     -712.320     366.617     101.060
  H     -707.761     365.899      98.771
  H     -709.034     365.317      97.725
  H     -708.822     364.621      99.313

 6  7  8  9  10  11  12  13  14  15  16  26  31  32  33  34  35 0
 6-311+G(2d,p)
 ****
 36  37 0
 6-311+G(2d,p)
 ****
 1  2  3  4  5  17  18  19  20  21  22  23  24  25 0
 3-21G
 ****
 27  28  29  30  38  39  40  41  42  43  44  45 0
 3-21G
 ****


