%nproc=1
%NoSave
%Mem=1900MB
#P OB98/GEN NMR

erre ene a

0 1
  C      234.216    -146.758     -88.049
  O      234.681    -145.667     -88.862
  P      234.867    -145.894     -90.446
  C      236.650    -146.960     -92.038
  O      236.112    -146.875     -90.727
  C      237.458    -148.255     -92.231
  O      238.562    -148.315     -91.262
  C      236.646    -149.547     -92.059
  O      237.202    -150.526     -92.944
  C      236.941    -149.928     -90.614
  O      236.669    -151.294     -90.329
  C      238.414    -149.549     -90.526
  N      238.922    -149.395     -89.155
  C      239.231    -150.553     -88.436
  O      239.063    -151.696     -88.866
  N      239.735    -150.340     -87.180
  C      239.915    -149.137     -86.565
  O      240.341    -149.019     -85.429
  C      239.535    -147.955     -87.361
  C      239.065    -148.135     -88.597
  O      235.440    -144.477     -90.926
  O      233.615    -146.229     -91.200
  H      236.816    -151.428     -89.379
  H      234.971    -144.189     -91.732
  H      239.993    -151.164     -86.651
  H      239.662    -146.974     -86.905
  H      238.790    -147.276     -89.206
  H      239.019    -150.301     -91.049
  H      236.312    -149.316     -89.948
  H      235.571    -149.410     -92.259
  H      237.918    -148.225     -93.228
  H      237.314    -146.102     -92.210
  H      235.835    -146.906     -92.766
  P      236.223    -151.217     -94.031
  C      234.267    -152.951     -93.861
  O      235.378    -152.340     -93.253
  O      237.288    -152.073     -94.869
  O      235.443    -150.254     -94.852
  H      237.919    -152.551     -94.308
  H      234.454    -153.172     -94.920
  H      233.386    -152.294     -93.763
  H      234.056    -153.899     -93.343
  H      234.149    -146.440     -87.030
  H      234.902    -147.576     -88.123
  H      233.251    -147.070     -88.389

 3  4  5  6  7  8  9  10  11  12  13  23  28  29  30  31  32 0
 6-311+G(2d,p)
 ****
 33  34 0
 6-311+G(2d,p)
 ****
 1  2  14  15  16  17  18  19  20  21  22  24  25  26 0
 3-21G
 ****
 27  35  36  37  38  39  40  41  42  43  44  45 0
 3-21G
 ****


