%nproc=1
%NoSave
%Mem=1900MB
#P OB98/GEN NMR

erre ene a

0 1
  C      626.374      24.535     -94.145
  O      626.966      24.518     -95.430
  H      626.623      25.464     -93.626
  H      625.283      24.482     -94.258
  H      626.708      23.674     -93.558
  P      628.567      24.577     -95.488
  C      628.544      26.876     -96.696
  O      628.941      26.137     -95.550
  C      628.625      28.371     -96.391
  O      627.729      28.710     -95.307
  C      630.004      28.850     -95.957
  O      630.868      29.068     -97.057
  C      629.641      30.162     -95.277
  O      629.378      31.170     -96.274
  C      628.345      29.787     -94.541
  N      626.375      29.657     -89.824
  C      625.925      30.202     -90.976
  N      626.511      30.200     -92.191
  C      627.687      29.546     -92.142
  C      628.275      28.950     -91.049
  C      627.563      29.011     -89.833
  N      628.029      28.469     -88.651
  N      629.505      28.405     -91.385
  C      629.635      28.645     -92.671
  N      628.560      29.342     -93.179
  O      628.906      24.059     -96.967
  O      629.285      23.799     -94.433
  H      629.354      32.024     -95.805
  H      629.836      23.754     -97.004
  H      624.964      30.713     -90.909
  H      630.470      28.340     -93.278
  H      627.631      30.612     -94.507
  H      630.439      30.544     -94.635
  H      630.455      28.177     -95.216
  H      628.282      28.917     -97.285
  H      627.513      26.614     -96.951
  H      627.540      28.733     -87.811
  H      628.980      28.122     -88.626
  H      629.202      26.622     -97.541
  P      632.451      29.009     -96.783
  C      632.720      31.592     -96.953
  O      632.837      30.428     -96.140
  O      633.080      29.076     -98.246
  O      632.904      27.800     -96.019
  H      633.954      28.650     -98.272
  H      633.011      32.453     -96.388
  H      631.705      31.702     -97.274
  H      633.356      31.495     -97.808

 6  7  8  9  10  11  12  13  14  15  25  28  32  33  34  35 0
 6-311+G(2d,p)
 ****
 36  39  40 0
 6-311+G(2d,p)
 ****
 1  2  3  4  5  16  17  18  19  20  21  22  23  24 0
 3-21G
 ****
 26  27  29  30  31  37  38  41  42  43  44  45  46  47 0
 3-21G
 ****
 48 0
 3-21G
 ****


