%nproc=1
%NoSave
%Mem=1900MB
#P OB98/GEN NMR

erre ene a

0 1
  C     -319.541      33.510     608.965
  O     -320.344      33.545     610.127
  H     -320.183      33.316     608.104
  H     -318.789      32.716     609.038
  H     -319.038      34.476     608.823
  P     -319.627      33.698     611.550
  C     -320.027      35.145     613.668
  O     -320.566      34.649     612.439
  C     -320.971      36.176     614.302
  O     -321.182      37.269     613.339
  C     -322.357      35.610     614.656
  O     -322.848      36.354     615.792
  C     -323.158      35.954     613.406
  O     -324.538      35.828     613.629
  C     -322.608      37.356     613.110
  N     -322.905      37.792     611.743
  C     -324.065      38.554     611.580
  O     -324.773      38.813     612.555
  N     -324.405      38.980     610.323
  C     -323.686      38.619     609.306
  N     -324.084      39.058     608.084
  C     -322.480      37.747     609.429
  C     -322.150      37.377     610.659
  O     -318.187      34.098     611.514
  O     -319.809      32.266     612.240
  H     -324.786      34.893     613.802
  H     -318.968      31.770     612.214
  H     -321.932      37.460     608.539
  H     -321.294      36.750     610.848
  H     -323.018      38.084     613.808
  H     -322.906      35.265     612.585
  H     -322.343      34.544     614.883
  H     -320.487      36.615     615.172
  H     -324.906      39.644     608.045
  H     -319.065      35.608     613.429
  H     -323.612      38.824     607.201
  H     -319.859      34.322     614.361
  P     -323.221      35.657     617.180
  C     -322.493      36.100     619.628
  O     -322.916      36.680     618.386
  O     -322.615      34.301     617.377
  O     -324.829      35.567     617.179
  H     -325.099      34.789     617.697
  H     -322.323      36.876     620.345
  H     -321.587      35.551     619.475
  H     -323.253      35.440     619.991

 6  7  8  9  10  11  12  13  14  15  16  26  30  31  32  33  35 0
 6-311+G(2d,p)
 ****
 37  38 0
 6-311+G(2d,p)
 ****
 1  2  3  4  5  17  18  19  20  21  22  23  24  25 0
 3-21G
 ****
 27  28  29  34  36  39  40  41  42  43  44  45  46 0
 3-21G
 ****


