%nproc=1
%NoSave
%Mem=1900MB
#P OB98/GEN NMR

erre ene a

0 1
  C      112.083      10.046    1042.436
  O      111.886       9.894    1043.828
  P      110.423      10.253    1044.400
  C      110.722       8.249    1046.016
  O      110.314       9.608    1045.861
  C      111.584       8.108    1047.280
  O      110.869       8.639    1048.433
  C      111.942       6.647    1047.660
  O      112.965       6.145    1046.828
  C      112.337       6.840    1049.126
  O      113.683       7.368    1049.208
  C      111.327       7.913    1049.607
  N      109.282       6.666    1054.135
  C      110.472       7.214    1053.810
  N      110.957       7.511    1052.581
  C      110.063       7.159    1051.631
  C      108.818       6.577    1051.823
  C      108.419       6.338    1053.134
  N      107.208       5.776    1053.473
  N      108.192       6.357    1050.630
  C      109.039       6.798    1049.715
  N      110.169       7.325    1050.280
  O      109.426       9.354    1043.511
  O      110.060      11.708    1044.314
  H      113.925       7.378    1050.152
  H      108.577       9.823    1043.349
  H      111.109       7.455    1054.644
  H      108.857       6.815    1048.642
  H      111.767       8.649    1050.292
  H      112.297       5.912    1049.688
  H      111.031       6.025    1047.609
  H      112.496       8.692    1047.152
  H      111.335       7.934    1045.158
  H      107.067       5.509    1054.444
  H      106.621       5.399    1052.734
  H      109.837       7.609    1046.086
  P      112.877       4.579    1046.428
  C      114.860       4.913    1044.826
  O      114.356       4.220    1045.962
  O      112.074       4.651    1045.037
  O      112.264       3.690    1047.476
  H      112.427       5.303    1044.425
  H      115.863       4.634    1044.661
  H      114.810       5.997    1044.982
  H      114.239       4.648    1043.929
  H      113.088       9.777    1042.187
  H      111.907      11.065    1042.160
  H      111.403       9.411    1041.908

 3  4  5  6  7  8  9  10  11  12  22  25  29  30  31  32 0
 6-311+G(2d,p)
 ****
 33  36  37 0
 6-311+G(2d,p)
 ****
 1  2  13  14  15  16  17  18  19  20  21  23  24  26 0
 3-21G
 ****
 27  28  34  35  38  39  40  41  42  43  44  45  46  47  48 0
 3-21G
 ****


