%nproc=1
%NoSave
%Mem=1900MB
#P OB98/GEN NMR

erre ene a

0 1
  C     -467.428    -486.552     173.208
  O     -467.793    -487.566     174.122
  H     -467.935    -486.703     172.250
  H     -467.735    -485.582     173.613
  H     -466.345    -486.543     173.058
  P     -467.423    -489.072     173.720
  C     -467.211    -491.250     175.125
  O     -467.119    -489.833     175.103
  C     -466.377    -491.796     176.277
  O     -464.972    -491.559     176.033
  C     -466.676    -491.160     177.630
  O     -467.830    -491.718     178.244
  C     -465.412    -491.518     178.393
  O     -465.472    -492.901     178.803
  C     -464.335    -491.326     177.321
  N     -460.649    -488.373     175.349
  C     -460.959    -489.673     175.162
  N     -461.953    -490.388     175.729
  C     -462.668    -489.622     176.570
  C     -462.465    -488.285     176.869
  C     -461.399    -487.649     176.208
  N     -461.068    -486.323     176.407
  N     -463.382    -487.846     177.808
  C     -464.146    -488.895     178.040
  N     -463.748    -489.997     177.324
  O     -465.970    -488.939     173.054
  O     -468.400    -489.766     172.829
  H     -464.746    -493.034     179.441
  H     -465.790    -489.714     172.492
  H     -460.325    -490.212     174.464
  H     -464.988    -488.910     178.714
  H     -463.513    -492.045     177.415
  H     -465.279    -490.924     179.299
  H     -466.752    -490.067     177.551
  H     -466.530    -492.885     176.317
  H     -466.828    -491.650     174.179
  H     -460.184    -486.021     176.035
  H     -461.527    -485.823     177.155
  H     -468.261    -491.540     175.239
  P     -468.596    -490.813     179.324
  C     -471.092    -490.479     179.978
  O     -470.157    -491.072     179.084
  O     -468.376    -489.325     178.782
  O     -468.119    -490.978     180.731
  H     -468.417    -488.679     179.510
  H     -472.086    -490.746     179.684
  H     -470.986    -489.415     179.951
  H     -470.908    -490.831     180.972

 6  7  8  9  10  11  12  13  14  15  25  28  32  33  34  35 0
 6-311+G(2d,p)
 ****
 36  39  40 0
 6-311+G(2d,p)
 ****
 1  2  3  4  5  16  17  18  19  20  21  22  23  24 0
 3-21G
 ****
 26  27  29  30  31  37  38  41  42  43  44  45  46  47 0
 3-21G
 ****
 48 0
 3-21G
 ****


