%nproc=1
%NoSave
%Mem=1900MB
#P OB98/GEN NMR

erre ene a

0 1
  C      383.378    -489.481    -751.922
  O      383.876    -489.974    -753.156
  P      385.321    -490.659    -753.155
  C      387.572    -489.933    -752.047
  O      386.373    -489.538    -752.714
  C      388.545    -488.754    -751.992
  O      387.990    -487.680    -751.188
  C      389.880    -489.094    -751.350
  O      390.735    -489.787    -752.248
  C      390.406    -487.721    -750.959
  O      391.043    -487.075    -752.072
  C      389.100    -486.987    -750.578
  N      388.927    -486.861    -749.123
  C      389.504    -485.747    -748.538
  O      390.142    -484.908    -749.179
  N      389.352    -485.636    -747.179
  C      388.740    -486.545    -746.368
  O      388.690    -486.420    -745.156
  C      388.171    -487.728    -747.048
  C      388.301    -487.830    -748.369
  O      385.642    -490.887    -754.700
  O      385.407    -491.933    -752.370
  H      391.335    -486.199    -751.754
  H      386.149    -491.720    -754.823
  H      389.748    -484.818    -746.743
  H      387.691    -488.478    -746.429
  H      387.902    -488.696    -748.881
  H      389.092    -485.977    -751.011
  H      391.131    -487.766    -750.150
  H      389.724    -489.690    -750.434
  H      388.702    -488.378    -753.010
  H      388.024    -490.757    -752.606
  H      387.329    -490.278    -751.039
  P      392.070    -490.435    -751.637
  C      393.726    -489.466    -749.872
  O      392.842    -489.219    -750.936
  O      392.892    -490.739    -752.980
  O      391.795    -491.628    -750.781
  H      392.704    -490.083    -753.682
  H      394.265    -490.408    -750.005
  H      393.175    -489.495    -748.929
  H      394.452    -488.650    -749.824
  H      382.409    -489.053    -752.074
  H      384.043    -488.733    -751.542
  H      383.307    -490.285    -751.219

 3  4  5  6  7  8  9  10  11  12  13  23  28  29  30  31  32 0
 6-311+G(2d,p)
 ****
 33  34 0
 6-311+G(2d,p)
 ****
 1  2  14  15  16  17  18  19  20  21  22  24  25  26 0
 3-21G
 ****
 27  35  36  37  38  39  40  41  42  43  44  45 0
 3-21G
 ****


