%nproc=1
%NoSave
%Mem=1900MB
#P OB98/GEN NMR

erre ene a

0 1
  C       40.068    -166.160    -150.065
  O       38.767    -166.700    -150.201
  H       40.794    -166.928    -150.339
  H       40.251    -165.859    -149.030
  H       40.197    -165.304    -150.732
  P       37.514    -165.780    -149.816
  C       37.051    -166.868    -147.519
  O       37.491    -165.707    -148.214
  C       36.258    -166.474    -146.275
  O       37.118    -165.846    -145.306
  C       35.120    -165.489    -146.544
  O       33.976    -166.166    -147.036
  C       34.911    -164.922    -145.152
  O       34.183    -165.871    -144.347
  C       36.358    -164.801    -144.638
  N       36.331    -159.822    -143.661
  C       35.423    -160.798    -143.304
  N       34.339    -160.385    -142.613
  N       35.559    -162.062    -143.605
  C       36.653    -162.320    -144.358
  C       37.616    -161.436    -144.790
  C       37.489    -160.047    -144.391
  O       38.285    -159.154    -144.666
  N       38.530    -162.046    -145.613
  C       38.149    -163.309    -145.633
  N       37.009    -163.527    -144.893
  O       36.201    -166.167    -150.425
  O       37.963    -164.304    -150.242
  H       34.050    -165.464    -143.471
  H       37.678    -164.098    -151.152
  H       36.169    -158.861    -143.408
  H       38.662    -164.105    -146.161
  H       36.429    -164.982    -143.559
  H       34.338    -163.993    -145.152
  H       34.104    -159.412    -142.482
  H       35.439    -164.680    -147.213
  H       33.633    -161.079    -142.392
  H       35.875    -167.395    -145.817
  H       37.942    -167.439    -147.237
  H       36.430    -167.490    -148.170
  P       33.179    -165.642    -148.329
  C       31.690    -164.150    -146.830
  O       32.598    -164.205    -147.918
  O       32.167    -166.593    -148.868
  O       34.326    -165.248    -149.369
  H       34.644    -166.019    -149.902
  H       31.387    -163.136    -146.669
  H       32.167    -164.524    -145.948
  H       30.831    -164.748    -147.052

 6  7  8  9  10  11  12  13  14  15  26  29  33  34 0
 6-311+G(2d,p)
 ****
 36  38  39  40  41 0
 6-311+G(2d,p)
 ****
 1  2  3  4  5  16  17  18  19  20  21  22  23  24  25 0
 3-21G
 ****
 27  28  30  31  32  35  37  42  43  44  45  46  47 0
 3-21G
 ****
 48  49 0
 3-21G
 ****


