%nproc=1
%NoSave
%Mem=1900MB
#P OB98/GEN NMR

erre ene a

0 1
  C     -707.179     180.145     136.846
  O     -705.888     180.372     137.370
  H     -707.860     180.897     137.243
  H     -707.533     179.156     137.149
  H     -707.173     180.221     135.751
  P     -704.679     179.532     136.750
  C     -704.753     177.560     138.444
  O     -704.037     178.686     137.951
  C     -703.885     176.770     139.427
  O     -702.695     176.321     138.721
  C     -703.417     177.590     140.642
  O     -703.390     176.725     141.780
  C     -701.998     177.973     140.268
  O     -701.167     178.272     141.388
  C     -701.548     176.720     139.503
  N     -700.389     176.966     138.650
  C     -699.385     176.007     138.636
  O     -699.448     174.919     139.217
  N     -698.269     176.326     137.904
  C     -698.054     177.489     137.232
  O     -697.029     177.726     136.617
  C     -699.150     178.481     137.291
  C     -700.245     178.175     137.992
  O     -703.574     180.653     136.449
  O     -705.023     178.722     135.535
  H     -703.691     181.016     135.549
  H     -701.072     177.455     141.917
  H     -697.533     175.633     137.890
  H     -699.003     179.418     136.776
  H     -701.052     178.893     138.073
  H     -701.325     175.910     140.203
  H     -702.001     178.852     139.608
  H     -704.043     178.467     140.854
  H     -704.436     175.877     139.741
  H     -705.023     176.909     137.601
  H     -705.670     177.904     138.938
  P     -704.655     176.754     142.764
  C     -703.732     178.856     144.043
  O     -704.156     177.488     144.093
  O     -704.760     175.210     143.175
  O     -705.873     177.328     142.128
  H     -703.904     174.783     143.254
  H     -703.435     179.173     145.021
  H     -704.540     179.467     143.699
  H     -702.904     178.948     143.372

 6  7  8  9  10  11  12  13  14  15  16  27  31  32  33  34  35 0
 6-311+G(2d,p)
 ****
 36  37 0
 6-311+G(2d,p)
 ****
 1  2  3  4  5  17  18  19  20  21  22  23  24  25 0
 3-21G
 ****
 26  28  29  30  38  39  40  41  42  43  44  45 0
 3-21G
 ****


