%nproc=1
%NoSave
%Mem=1900MB
#P OB98/GEN NMR

erre ene a

0 1
  C      804.712     386.823     678.983
  O      803.846     387.827     678.490
  H      805.287     386.376     678.163
  H      805.404     387.278     679.691
  H      804.141     386.049     679.499
  P      802.814     387.374     677.344
  C      804.538     388.313     675.651
  O      803.176     388.230     676.041
  C      804.647     388.655     674.170
  O      803.895     387.703     673.382
  C      804.095     390.026     673.788
  O      805.012     391.067     674.111
  C      803.932     389.855     672.286
  O      805.206     390.049     671.640
  C      803.486     388.394     672.163
  N      799.599     388.522     668.814
  C      800.931     388.738     668.665
  N      801.895     388.701     669.596
  C      801.391     388.376     670.799
  C      800.064     388.135     671.106
  C      799.137     388.218     670.058
  N      797.785     388.019     670.212
  N      799.922     387.826     672.442
  C      801.140     387.888     672.938
  N      802.067     388.224     671.990
  O      801.423     387.998     677.831
  O      802.710     385.900     677.129
  H      805.823     389.415     672.038
  H      800.699     387.387     677.597
  H      801.255     388.970     667.651
  H      801.397     387.683     673.975
  H      804.004     387.885     671.335
  H      803.235     390.569     671.846
  H      803.110     390.197     674.245
  H      805.704     388.562     673.878
  H      805.027     387.348     675.836
  H      797.210     387.900     669.392
  H      797.450     387.779     671.138
  H      805.036     389.074     676.261
  P      804.508     392.215     675.115
  C      803.150     393.370     673.220
  O      804.188     393.489     674.187
  O      805.842     392.633     675.885
  O      803.426     391.801     676.061
  H      805.615     393.019     676.762
  H      803.055     394.291     672.684
  H      802.227     393.148     673.713
  H      803.388     392.582     672.536

 6  7  8  9  10  11  12  13  14  15  25  28  32  33  34  35 0
 6-311+G(2d,p)
 ****
 36  39  40 0
 6-311+G(2d,p)
 ****
 1  2  3  4  5  16  17  18  19  20  21  22  23  24 0
 3-21G
 ****
 26  27  29  30  31  37  38  41  42  43  44  45  46  47  48 0
 3-21G
 ****


