%nproc=1
%NoSave
%Mem=1900MB
#P OB98/GEN NMR

erre ene a

0 1
  C      -14.649      58.243     333.710
  O      -13.917      57.671     332.640
  P      -13.131      56.295     332.897
  C      -10.726      57.309     333.215
  O      -11.849      56.663     333.788
  C       -9.431      56.791     333.851
  O       -9.395      57.210     335.246
  C       -9.279      55.263     333.828
  O       -7.882      54.982     333.654
  C       -9.731      54.857     335.218
  O       -9.231      53.589     335.607
  C       -9.200      56.030     336.050
  N       -9.862      56.173     337.347
  C       -9.140      55.832     338.485
  O       -7.992      55.395     338.466
  N       -9.809      55.980     339.679
  C      -11.111      56.364     339.827
  O      -11.661      56.463     340.920
  C      -11.835      56.665     338.586
  C      -11.187      56.567     337.423
  O      -12.530      56.006     331.447
  O      -13.991      55.209     333.452
  H      -12.266      56.814     330.973
  H       -8.284      53.687     335.814
  H       -9.296      55.772     340.522
  H      -12.876      56.955     338.666
  H      -11.699      56.782     336.492
  H       -8.118      55.920     336.200
  H      -10.826      54.811     335.244
  H       -9.854      54.797     333.023
  H       -8.587      57.274     333.344
  H      -10.806      58.389     333.385
  H      -10.723      57.136     332.134
  P       -7.443      54.030     332.430
  C       -7.665      51.883     333.915
  O       -8.025      52.569     332.737
  O       -5.876      53.864     332.743
  O       -7.708      54.588     331.068
  H       -5.702      53.638     333.673
  H       -8.398      51.094     334.102
  H       -7.653      52.556     334.781
  H       -6.678      51.427     333.793
  H      -15.112      59.150     333.381
  H      -13.986      58.456     334.522
  H      -15.402      57.556     334.035

 3  4  5  6  7  8  9  10  11  12  13  24  28  29  30  31  32 0
 6-311+G(2d,p)
 ****
 33  34 0
 6-311+G(2d,p)
 ****
 1  2  14  15  16  17  18  19  20  21  22  23  25  26  27 0
 3-21G
 ****
 35  36  37  38  39  40  41  42  43  44  45 0
 3-21G
 ****


