%nproc=1
%NoSave
%Mem=1900MB
#P OB98/GEN NMR

erre ene a

0 1
  C       65.744     754.749    -431.470
  O       65.775     755.190    -430.114
  P       66.934     756.235    -429.739
  C       65.363     758.181    -429.039
  O       66.356     757.722    -429.939
  C       65.325     759.715    -429.014
  O       66.581     760.285    -428.574
  C       65.024     760.328    -430.371
  O       63.641     760.275    -430.640
  C       65.545     761.758    -430.177
  O       64.551     762.592    -429.540
  C       66.755     761.549    -429.254
  N       70.260     764.479    -431.460
  C       68.988     764.795    -431.029
  N       68.607     766.092    -431.171
  N       68.167     763.927    -430.492
  C       68.681     762.688    -430.408
  C       69.944     762.254    -430.774
  C       70.843     763.214    -431.372
  O       71.983     762.989    -431.749
  N       70.124     760.924    -430.470
  C       68.931     760.528    -430.040
  N       68.057     761.571    -429.915
  O       67.994     756.055    -430.931
  O       67.556     755.974    -428.394
  H       63.790     762.705    -430.150
  H       68.801     755.624    -430.576
  H       70.855     765.182    -431.876
  H       68.679     759.510    -429.772
  H       66.799     762.333    -428.477
  H       65.777     762.231    -431.141
  H       69.198     766.801    -431.575
  H       65.607     759.821    -431.154
  H       67.680     766.337    -430.851
  H       64.547     760.009    -428.289
  H       65.564     757.804    -428.044
  H       64.391     757.771    -429.343
  P       63.037     758.904    -431.229
  C       62.178     758.381    -428.834
  O       62.824     757.911    -429.992
  O       64.280     758.279    -432.028
  O       61.848     759.077    -432.113
  H       63.974     757.937    -432.883
  H       61.664     757.556    -428.351
  H       61.451     759.170    -429.063
  H       62.930     758.783    -428.137
  H       64.936     754.060    -431.603
  H       66.668     754.265    -431.709
  H       65.605     755.591    -432.116

 3  4  5  6  7  8  9  10  11  12  23  26  30  31 0
 6-311+G(2d,p)
 ****
 33  35  36  37  38 0
 6-311+G(2d,p)
 ****
 1  2  13  14  15  16  17  18  19  20  21  22  24  25 0
 3-21G
 ****
 27  28  29  32  34  39  40  41  42  43  44  45  46  47  48  49 0
 3-21G
 ****


