%nproc=1
%NoSave
%Mem=1900MB
#P OB98/GEN NMR

erre ene a

0 1
  C      113.245      99.745     241.913
  O      113.053     100.512     240.741
  P      114.273     101.347     240.110
  C      115.465     103.554     240.700
  O      114.290     102.764     240.870
  C      115.090     105.030     240.589
  O      114.463     105.320     239.313
  C      114.072     105.494     241.624
  O      114.471     105.490     242.980
  C      113.628     106.824     241.029
  O      114.558     107.864     241.333
  C      113.646     106.502     239.510
  N      112.299     106.325     238.970
  C      111.618     107.497     238.642
  O      112.091     108.626     238.785
  N      110.341     107.329     238.165
  C      109.681     106.143     238.032
  O      108.517     106.071     237.642
  C      110.448     104.942     238.412
  C      111.701     105.087     238.859
  O      114.266     101.443     238.617
  O      115.568     100.624     240.710
  H      114.421     108.578     240.682
  H      115.624     100.630     241.682
  H      109.826     108.167     237.934
  H      109.955     103.985     238.310
  H      112.280     104.215     239.146
  H      114.133     107.317     238.959
  H      112.650     107.133     241.416
  H      113.206     104.816     241.571
  H      116.008     105.624     240.638
  H      115.969     103.248     239.780
  H      116.148     103.377     241.535
  P      113.535     104.979     244.172
  C      111.339     105.759     245.320
  O      112.367     106.060     244.401
  O      114.225     104.447     245.387
  O      112.730     103.780     243.461
  H      112.524     103.094     244.125
  H      110.616     106.573     245.312
  H      111.751     105.655     246.332
  H      110.825     104.837     245.033
  H      112.327      99.264     242.179
  H      113.557     100.386     242.711
  H      113.997      99.005     241.736

 3  4  5  6  7  8  9  10  11  12  13  23  28  29  30  31  32 0
 6-311+G(2d,p)
 ****
 33  34 0
 6-311+G(2d,p)
 ****
 1  2  14  15  16  17  18  19  20  21  22  24  25  26  27 0
 3-21G
 ****
 35  36  37  38  39  40  41  42  43  44  45 0
 3-21G
 ****


