%nproc=1
%NoSave
%Mem=1900MB
#P OB98/GEN NMR

erre ene a

0 1
  C     -173.104     -80.022     275.245
  O     -171.866     -79.687     274.603
  P     -171.768     -79.306     273.052
  C     -170.954     -76.904     273.529
  O     -170.690     -78.133     272.862
  C     -169.680     -76.311     274.145
  O     -169.348     -76.987     275.372
  C     -168.436     -76.422     273.271
  O     -168.464     -75.469     272.223
  C     -167.335     -76.207     274.301
  O     -167.130     -74.809     274.561
  C     -167.920     -76.911     275.546
  N     -167.339     -78.230     275.765
  C     -165.993     -78.264     276.142
  O     -165.336     -77.222     276.223
  N     -165.412     -79.485     276.401
  C     -166.091     -80.575     276.222
  N     -165.472     -81.749     276.499
  C     -167.486     -80.585     275.733
  C     -168.040     -79.388     275.534
  O     -173.088     -79.024     272.404
  O     -171.065     -80.570     272.358
  H     -166.915     -74.398     273.699
  H     -171.392     -80.651     271.443
  H     -168.011     -81.513     275.573
  H     -169.065     -79.307     275.183
  H     -167.753     -76.303     276.443
  H     -166.373     -76.620     273.983
  H     -168.359     -77.436     272.861
  H     -169.884     -75.258     274.386
  H     -164.518     -81.705     276.837
  H     -171.684     -77.099     274.325
  H     -165.908     -82.651     276.395
  H     -171.392     -76.199     272.814
  P     -167.371     -75.546     271.054
  C     -169.078     -75.895     269.171
  O     -168.074     -75.053     269.702
  O     -166.625     -76.834     270.948
  O     -166.374     -74.334     271.391
  H     -165.476     -74.573     271.093
  H     -169.732     -75.300     268.528
  H     -169.674     -76.348     269.964
  H     -168.610     -76.680     268.571
  H     -172.923     -80.239     276.277
  H     -173.532     -80.880     274.770
  H     -173.781     -79.197     275.167

 3  4  5  6  7  8  9  10  11  12  13  23  27  28  29  30  32 0
 6-311+G(2d,p)
 ****
 34  35 0
 6-311+G(2d,p)
 ****
 1  2  14  15  16  17  18  19  20  21  22  24  25  26 0
 3-21G
 ****
 31  33  36  37  38  39  40  41  42  43  44  45  46 0
 3-21G
 ****


