%nproc=1
%NoSave
%Mem=1900MB
#P OB98/GEN NMR

erre ene a

0 1
  C       77.593     433.779      20.142
  O       77.032     432.715      19.400
  H       77.674     434.654      19.493
  H       78.592     433.509      20.495
  H       76.952     434.026      20.991
  P       76.880     431.308      20.155
  C       78.727     430.207      18.697
  O       77.373     430.180      19.125
  C       79.095     428.865      18.071
  O       79.204     427.857      19.101
  C       78.056     428.332      17.093
  O       78.136     428.963      15.828
  C       78.436     426.862      17.044
  O       79.504     426.624      16.113
  C       78.893     426.586      18.493
  N       77.889     425.845      19.254
  C       77.674     424.534      18.849
  O       78.276     424.009      17.912
  N       76.709     423.847      19.534
  C       75.928     424.346      20.537
  O       75.030     423.702      21.062
  C       76.212     425.736      20.934
  C       77.157     426.416      20.278
  O       75.294     431.101      20.216
  O       77.511     431.242      21.504
  H       74.966     431.305      21.111
  H       79.209     426.994      15.258
  H       76.532     422.895      19.246
  H       75.616     426.162      21.730
  H       77.371     427.449      20.536
  H       79.818     426.001      18.497
  H       77.598     426.240      16.727
  H       77.052     428.424      17.521
  H       80.072     428.965      17.580
  H       79.379     430.391      19.558
  H       78.857     431.021      17.977
  P       77.345     430.337      15.604
  C       75.541     429.567      13.853
  O       76.738     430.278      14.119
  O       78.554     431.376      15.489
  O       76.352     430.640      16.675
  H       79.334     431.005      15.039
  H       75.303     429.646      12.813
  H       74.744     429.981      14.434
  H       75.673     428.537      14.111

 6  7  8  9  10  11  12  13  14  15  16  27  31  32  33  34  35 0
 6-311+G(2d,p)
 ****
 36  37 0
 6-311+G(2d,p)
 ****
 1  2  3  4  5  17  18  19  20  21  22  23  24  25 0
 3-21G
 ****
 26  28  29  30  38  39  40  41  42  43  44  45 0
 3-21G
 ****


