%nproc=1
%NoSave
%Mem=1900MB
#P OB98/GEN NMR

erre ene a

0 1
  C      195.944      13.219      62.504
  O      195.868      14.039      63.651
  H      195.936      12.171      62.818
  H      196.881      13.417      61.977
  H      195.096      13.395      61.837
  P      195.469      15.576      63.428
  C      196.741      17.730      62.732
  O      196.792      16.321      62.899
  C      198.064      18.250      62.169
  O      199.138      17.884      63.090
  C      198.424      17.682      60.785
  O      199.072      18.704      60.019
  C      199.453      16.616      61.118
  O      200.304      16.322      60.013
  C      200.169      17.268      62.295
  N      204.847      15.682      63.179
  C      204.391      16.804      62.518
  N      205.317      17.601      61.948
  N      203.124      17.118      62.418
  C      202.303      16.245      63.051
  C      202.627      15.098      63.733
  C      204.032      14.750      63.822
  O      204.497      13.760      64.375
  N      201.499      14.455      64.175
  C      200.496      15.199      63.743
  N      200.934      16.295      63.053
  O      195.309      16.115      64.928
  O      194.239      15.808      62.618
  H      200.772      17.145      59.760
  H      194.371      16.071      65.197
  H      205.830      15.475      63.213
  H      199.449      14.980      63.882
  H      200.871      18.052      61.978
  H      198.950      15.691      61.425
  H      206.311      17.443      62.008
  H      197.566      17.288      60.228
  H      205.001      18.451      61.494
  H      198.026      19.344      62.139
  H      196.559      18.201      63.705
  H      195.914      17.985      62.060
  P      198.149      19.774      59.259
  C      196.788      19.886      57.044
  O      197.698      19.155      57.849
  O      199.190      20.917      58.841
  O      197.043      20.323      60.098
  H      198.756      21.789      58.878
  H      196.590      19.341      56.144
  H      197.213      20.837      56.799
  H      195.874      20.031      57.581

 6  7  8  9  10  11  12  13  14  15  26  29  33  34 0
 6-311+G(2d,p)
 ****
 36  38  39  40  41 0
 6-311+G(2d,p)
 ****
 1  2  3  4  5  16  17  18  19  20  21  22  23  24  25 0
 3-21G
 ****
 27  28  30  31  32  35  37  42  43  44  45  46  47 0
 3-21G
 ****
 48  49 0
 3-21G
 ****


