%nproc=1
%NoSave
%Mem=1900MB
#P OB98/GEN NMR

erre ene a

0 1
  C      635.321     248.580      40.644
  O      634.740     248.582      39.356
  H      634.750     247.900      41.285
  H      635.272     249.584      41.068
  H      636.360     248.238      40.601
  P      635.583     249.260      38.174
  C      633.860     251.128      37.681
  O      634.531     249.982      37.196
  C      632.367     251.052      37.353
  O      632.210     250.876      35.916
  C      631.633     249.888      38.044
  O      630.333     250.331      38.432
  C      631.519     248.843      36.950
  O      630.419     247.951      37.162
  C      631.378     249.720      35.716
  N      629.647     247.596      31.479
  C      628.984     248.321      32.452
  N      627.661     248.514      32.269
  N      629.571     248.833      33.509
  C      630.907     248.596      33.534
  C      631.678     247.886      32.643
  C      631.005     247.309      31.493
  O      631.539     246.631      30.617
  N      632.985     247.842      33.042
  C      633.010     248.527      34.174
  N      631.770     249.009      34.513
  O      636.085     248.004      37.321
  O      636.725     250.115      38.613
  H      630.638     247.401      37.949
  H      637.061     247.948      37.359
  H      629.142     247.222      30.695
  H      633.893     248.694      34.786
  H      630.343     250.069      35.558
  H      632.438     248.253      36.905
  H      627.151     248.191      31.457
  H      632.168     249.514      38.922
  H      627.160     249.076      32.946
  H      631.905     252.015      37.603
  H      634.286     252.019      37.222
  H      633.994     251.195      38.770
  P      629.996     250.315      40.004
  C      627.588     249.377      39.831
  O      628.403     250.480      40.182
  O      630.587     251.714      40.520
  O      630.604     249.165      40.737
  H      631.389     251.562      41.050
  H      626.561     249.625      39.999
  H      627.853     248.532      40.431
  H      627.734     249.140      38.798

 6  7  8  9  10  11  12  13  14  15  26  29  33  34 0
 6-311+G(2d,p)
 ****
 36  38  39  40  41 0
 6-311+G(2d,p)
 ****
 1  2  3  4  5  16  17  18  19  20  21  22  23  24  25 0
 3-21G
 ****
 27  28  30  31  32  35  37  42  43  44  45  46  47 0
 3-21G
 ****
 48  49 0
 3-21G
 ****


