%nproc=1
%NoSave
%Mem=1900MB
#P OB98/GEN NMR

erre ene a

0 1
  C      232.001     270.503      10.176
  O      231.931     269.148      10.574
  H      232.892     270.952      10.623
  H      231.123     271.053      10.522
  H      232.082     270.576       9.088
  P      230.665     268.281      10.112
  C      228.421     268.056      11.379
  O      229.385     268.938      10.818
  C      228.074     268.475      12.806
  O      229.248     268.427      13.642
  C      227.539     269.898      12.924
  O      226.202     269.967      12.473
  C      227.741     270.149      14.410
  O      226.713     269.517      15.184
  C      229.106     269.458      14.649
  N      230.239     270.378      14.609
  C      230.822     270.690      15.842
  O      230.367     270.212      16.881
  N      231.892     271.553      15.860
  C      232.367     272.023      14.752
  N      233.428     272.867      14.841
  C      231.805     271.689      13.429
  C      230.748     270.880      13.431
  O      230.778     266.798      10.293
  O      230.471     268.674       8.572
  H      226.669     268.590      14.873
  H      230.932     268.035       7.995
  H      232.240     272.099      12.528
  H      230.274     270.585      12.500
  H      229.113     268.951      15.623
  H      227.722     271.210      14.657
  H      228.177     270.590      12.366
  H      227.353     267.749      13.205
  H      233.793     273.050      15.770
  H      228.865     267.054      11.378
  H      233.977     273.160      14.045
  H      227.515     268.031      10.762
  P      225.678     271.186      11.569
  C      223.949     273.002      12.126
  O      225.059     272.253      12.598
  O      224.783     270.803      10.444
  O      227.028     271.908      11.097
  H      227.454     271.393      10.365
  H      223.623     273.676      12.890
  H      223.151     272.336      11.873
  H      224.237     273.559      11.259

 6  7  8  9  10  11  12  13  14  15  16  26  30  31  32  33  35 0
 6-311+G(2d,p)
 ****
 37  38 0
 6-311+G(2d,p)
 ****
 1  2  3  4  5  17  18  19  20  21  22  23  24  25 0
 3-21G
 ****
 27  28  29  34  36  39  40  41  42  43  44  45  46 0
 3-21G
 ****


