%nproc=1
%NoSave
%Mem=1900MB
#P OB98/GEN NMR

erre ene a

0 1
  C     -447.229     244.956     268.910
  O     -446.365     244.112     268.169
  H     -447.000     245.996     268.655
  H     -447.085     244.814     269.987
  H     -448.269     244.753     268.645
  P     -446.309     242.552     268.567
  C     -446.206     241.866     266.081
  O     -445.548     241.834     267.349
  C     -445.370     241.170     265.003
  O     -444.197     241.949     264.687
  C     -444.841     239.803     265.416
  O     -445.822     238.815     265.602
  C     -443.733     239.580     264.392
  O     -444.237     239.078     263.157
  C     -443.197     241.021     264.200
  N     -441.912     241.234     264.852
  C     -440.834     240.522     264.329
  O     -440.938     239.741     263.379
  N     -439.633     240.712     264.950
  C     -439.419     241.492     266.059
  O     -438.313     241.599     266.576
  C     -440.595     242.180     266.589
  C     -441.778     242.030     265.977
  O     -447.628     241.929     268.922
  O     -445.230     242.499     269.751
  H     -444.693     238.233     263.357
  H     -445.288     241.642     270.242
  H     -438.840     240.226     264.572
  H     -440.463     242.798     267.476
  H     -442.664     242.532     266.355
  H     -443.073     241.240     263.130
  H     -442.977     238.879     264.748
  H     -444.338     239.917     266.389
  H     -445.980     241.096     264.093
  H     -446.346     242.918     265.809
  H     -447.191     241.388     266.165
  P     -445.828     237.783     266.824
  C     -448.424     237.625     267.144
  O     -447.213     236.969     266.794
  O     -445.350     238.308     268.136
  O     -444.767     236.673     266.323
  H     -444.303     236.344     267.116
  H     -449.238     236.935     267.068
  H     -448.590     238.447     266.479
  H     -448.356     237.987     268.148

 6  7  8  9  10  11  12  13  14  15  16  26  31  32  33  34  35 0
 6-311+G(2d,p)
 ****
 36  37 0
 6-311+G(2d,p)
 ****
 1  2  3  4  5  17  18  19  20  21  22  23  24  25 0
 3-21G
 ****
 27  28  29  30  38  39  40  41  42  43  44  45 0
 3-21G
 ****


