%nproc=1
%NoSave
%Mem=1900MB
#P OB98/GEN NMR

erre ene a

0 1
  C     -387.563     859.167     382.839
  O     -388.587     858.163     382.789
  P     -390.148     858.504     382.593
  C     -391.093     856.853     384.351
  O     -390.992     857.195     382.974
  C     -391.629     855.434     384.524
  O     -392.876     855.277     383.812
  C     -390.742     854.331     383.973
  O     -389.601     854.100     384.771
  C     -391.720     853.154     383.922
  O     -391.810     852.497     385.193
  C     -393.061     853.861     383.603
  N     -393.538     853.584     382.259
  C     -394.601     852.690     382.147
  O     -395.045     852.112     383.138
  N     -395.142     852.459     380.898
  C     -394.585     852.990     379.854
  N     -395.175     852.741     378.644
  C     -393.378     853.831     379.914
  C     -392.910     854.083     381.136
  O     -390.482     859.068     381.249
  O     -390.500     859.546     383.756
  H     -391.257     860.099     383.479
  H     -390.954     852.039     385.337
  H     -392.927     854.220     379.013
  H     -392.033     854.707     381.279
  H     -393.826     853.557     384.326
  H     -391.431     852.404     383.186
  H     -390.439     854.594     382.953
  H     -391.815     855.275     385.596
  H     -396.009     852.167     378.647
  H     -391.784     857.560     384.830
  H     -394.837     853.124     377.774
  H     -390.108     856.961     384.821
  P     -388.436     853.192     384.141
  C     -388.482     851.721     386.280
  O     -387.701     852.433     385.344
  O     -387.353     854.257     383.636
  O     -388.886     852.301     383.021
  H     -386.980     853.966     382.779
  H     -387.880     850.903     386.695
  H     -389.377     851.288     385.813
  H     -388.787     852.384     387.088
  H     -386.611     858.699     382.975
  H     -387.754     859.831     383.656
  H     -387.561     859.720     381.923

 3  4  5  6  7  8  9  10  11  12  13  24  27  28  29  30  32 0
 6-311+G(2d,p)
 ****
 34  35 0
 6-311+G(2d,p)
 ****
 1  2  14  15  16  17  18  19  20  21  22  23  25  26 0
 3-21G
 ****
 31  33  36  37  38  39  40  41  42  43  44  45  46 0
 3-21G
 ****


