%nproc=1
%NoSave
%Mem=1900MB
#P OB98/GEN NMR

erre ene a

0 1
  C      229.317    -246.121     425.420
  O      229.128    -246.335     424.034
  H      229.067    -245.084     425.653
  H      230.359    -246.306     425.688
  H      228.664    -246.781     425.999
  P      229.403    -247.821     423.497
  C      231.554    -249.043     422.669
  O      230.999    -247.971     423.420
  C      233.074    -249.097     422.866
  O      233.660    -247.896     422.281
  C      233.503    -249.125     424.345
  O      234.742    -249.845     424.446
  C      233.757    -247.655     424.624
  O      234.514    -247.499     425.801
  C      234.433    -247.259     423.320
  N      237.512    -243.279     422.480
  C      237.750    -244.608     422.551
  N      236.868    -245.606     422.770
  C      235.625    -245.117     422.897
  C      235.229    -243.794     422.845
  C      236.237    -242.844     422.634
  N      236.005    -241.489     422.584
  N      233.861    -243.688     423.043
  C      233.446    -244.933     423.202
  N      234.475    -245.827     423.116
  O      228.953    -247.743     421.962
  O      228.704    -248.915     424.229
  H      235.453    -247.730     425.648
  H      228.023    -248.017     421.872
  H      238.786    -244.908     422.417
  H      232.424    -245.237     423.387
  H      235.462    -247.632     423.250
  H      232.815    -247.114     424.765
  H      232.760    -249.580     425.002
  H      233.480    -249.950     422.316
  H      231.318    -248.885     421.612
  H      231.111    -249.987     423.003
  H      236.790    -240.872     422.455
  H      235.064    -241.143     422.732
  P      235.149    -250.510     425.855
  C      236.459    -249.853     428.012
  O      236.120    -249.529     426.672
  O      236.148    -251.678     425.399
  O      234.012    -251.083     426.642
  H      235.926    -252.500     425.866
  H      237.109    -249.101     428.407
  H      236.955    -250.801     428.035
  H      235.569    -249.902     428.603

 6  7  8  9  10  11  12  13  14  15  25  28  32  33  34  35 0
 6-311+G(2d,p)
 ****
 36  37  40 0
 6-311+G(2d,p)
 ****
 1  2  3  4  5  16  17  18  19  20  21  22  23  24 0
 3-21G
 ****
 26  27  29  30  31  38  39 41  42  43  44  45  46  47  48 0
 3-21G
 ****


