%nproc=1
%NoSave
%Mem=1900MB
#P OB98/GEN NMR

erre ene a

0 1
  C     -384.131    -275.346     869.464
  O     -384.658    -274.660     870.607
  P     -386.248    -274.777     870.844
  C     -386.927    -272.495     869.763
  O     -386.963    -273.930     869.685
  C     -387.602    -271.875     868.547
  O     -389.036    -272.050     868.576
  C     -387.389    -270.359     868.417
  O     -386.111    -270.026     867.886
  C     -388.500    -269.983     867.470
  O     -388.083    -270.228     866.102
  C     -389.627    -270.972     867.855
  N     -394.590    -270.735     868.908
  C     -393.913    -271.549     868.000
  N     -394.667    -272.396     867.277
  N     -392.625    -271.488     867.806
  C     -392.007    -270.587     868.603
  C     -392.554    -269.747     869.545
  C     -393.993    -269.802     869.745
  O     -394.647    -269.100     870.513
  N     -391.598    -268.995     870.174
  C     -390.478    -269.371     869.632
  N     -390.665    -270.353     868.669
  O     -386.480    -273.878     872.152
  O     -386.736    -276.175     871.023
  H     -387.368    -269.594     865.908
  H     -387.271    -274.193     872.637
  H     -395.604    -270.834     869.034
  H     -389.492    -269.002     869.898
  H     -390.115    -271.396     866.960
  H     -388.789    -268.922     867.510
  H     -395.654    -272.563     867.442
  H     -387.571    -269.857     869.399
  H     -394.182    -273.032     866.638
  H     -387.208    -272.356     867.647
  H     -385.879    -272.159     869.826
  H     -387.402    -272.176     870.701
  P     -384.876    -269.962     868.904
  C     -385.239    -267.377     869.172
  O     -385.163    -268.654     869.814
  O     -383.684    -269.507     867.959
  O     -384.590    -271.220     869.628
  H     -382.813    -269.821     868.333
  H     -385.809    -267.434     868.252
  H     -384.212    -267.009     868.992
  H     -385.730    -266.685     869.867
  H     -383.073    -275.195     869.414
  H     -384.588    -274.963     868.576
  H     -384.338    -276.392     869.549

 3  4  5  6  7  8  9  10  11  12  23  26  30  31  33  0
 6-311+G(2d,p)
 ****
 35  36  37  38 0
 6-311+G(2d,p)
 ****
 1  2  13  14  15  16  17  18  19  20  21  22  24  25  27  28  29 0
 3-21G
 ****
 32  34  39  40  41  42  43  44  45  46  47  48  49 0
 3-21G
 ****


