%nproc=1
%NoSave
%Mem=1900MB
#P OB98/GEN NMR

erre ene a

0 1
  C      889.709     -94.987      17.268
  O      888.664     -94.017      17.244
  P      887.122     -94.358      17.007
  C      886.898     -93.694      14.471
  O      886.924     -94.716      15.473
  C      886.544     -94.236      13.090
  O      885.118     -94.438      12.980
  C      886.887     -93.181      11.997
  O      888.230     -93.101      11.525
  C      885.841     -93.357      10.917
  O      886.274     -94.228       9.874
  C      884.654     -93.967      11.670
  N      881.403     -90.781       9.373
  C      882.483     -91.454       8.830
  N      882.767     -91.223       7.523
  N      883.229     -92.297       9.519
  C      882.895     -92.361      10.838
  C      881.864     -91.715      11.487
  C      881.000     -90.823      10.695
  O      880.027     -90.230      11.119
  N      881.850     -92.023      12.844
  C      882.875     -92.825      12.982
  N      883.547     -93.058      11.809
  O      886.152     -93.377      17.608
  O      886.925     -95.770      17.772
  H      885.537     -94.275       9.201
  H      885.995     -95.763      18.116
  H      880.854     -90.168       8.787
  H      883.188     -93.264      13.933
  H      884.282     -94.860      11.159
  H      885.586     -92.384      10.451
  H      882.285     -90.528       6.976
  H      886.711     -92.189      12.437
  H      883.655     -91.549       7.196
  H      887.015     -95.195      12.889
  H      887.903     -93.245      14.469
  H      886.194     -92.905      14.766
  P      889.351     -92.043      11.989
  C      888.514     -90.055      10.584
  O      888.736     -90.577      11.907
  O      890.431     -92.069      10.805
  O      889.999     -92.370      13.319
  H      891.278     -91.679      11.119
  H      888.401     -88.963      10.629
  H      887.609     -90.487      10.181
  H      889.386     -90.315       9.948
  H      890.645     -94.499      17.444
  H      889.744     -95.497      16.328
  H      889.522     -95.693      18.050

 3  4  5  6  7  8  9  10  11  12  23  26  30  31 0
 6-311+G(2d,p)
 ****
 33  35  36  37  38 0
 6-311+G(2d,p)
 ****
 1  2  13  14  15  16  17  18  19  20  21  22  24  25 0
 3-21G
 ****
 27  28  29  32  34  39  40  41  42  43  44  45  46  47  48  49 0
 3-21G
 ****


