%nproc=1
%NoSave
%Mem=1900MB
#P OB98/GEN NMR

erre ene a

0 1
  C     -897.270    -522.786    -608.472
  O     -896.300    -523.619    -609.126
  P     -895.610    -524.793    -608.305
  C     -895.740    -526.785    -609.965
  O     -896.220    -526.216    -608.756
  C     -896.880    -527.322    -610.810
  O     -897.760    -526.254    -611.248
  C     -896.420    -527.986    -612.097
  O     -895.740    -529.219    -611.980
  C     -897.680    -527.970    -612.948
  O     -898.530    -529.082    -612.632
  C     -898.340    -526.627    -612.521
  N     -898.170    -525.575    -613.510
  C     -899.080    -524.513    -613.441
  O     -900.000    -524.482    -612.629
  N     -898.900    -523.528    -614.360
  C     -897.960    -523.495    -615.352
  O     -897.870    -522.589    -616.169
  C     -897.050    -524.654    -615.397
  C     -897.190    -525.628    -614.484
  O     -895.500    -524.596    -606.833
  O     -894.130    -524.859    -608.964
  H     -898.000    -529.895    -612.721
  H     -893.490    -524.992    -608.242
  H     -899.540    -522.741    -614.315
  H     -896.290    -524.668    -616.178
  H     -896.530    -526.493    -614.503
  H     -899.410    -526.774    -612.356
  H     -897.450    -528.043    -614.024
  H     -895.710    -527.312    -612.595
  H     -897.480    -528.016    -610.200
  H     -895.040    -527.596    -609.722
  H     -895.160    -526.024    -610.508
  P     -894.150    -529.356    -612.126
  C     -893.180    -531.047    -610.404
  O     -893.530    -529.713    -610.678
  O     -893.430    -528.313    -612.936
  O     -894.010    -530.759    -612.872
  H     -893.220    -530.727    -613.465
  H     -892.810    -531.106    -609.380
  H     -892.390    -531.376    -611.086
  H     -894.040    -531.706    -610.492
  H     -897.633    -522.052    -609.161
  H     -896.814    -522.296    -607.637
  H     -898.086    -523.389    -608.131

 3  4  5  6  7  8  9  10  11  12  13  23  28  29  30  31  32 0
 6-311+G(2d,p)
 ****
 33  34 0
 6-311+G(2d,p)
 ****
 1  2  14  15  16  17  18  19  20  21  22  24  25  26  27 0
 3-21G
 ****
 35  36  37  38  39  40  41  42  43  44  45 0
 3-21G
 ****


