%nproc=1
%NoSave
%Mem=1900MB
#P OB98/GEN NMR

erre ene a

0 1
  C       47.502      78.588     -43.009
  O       47.130      79.718     -43.772
  H       46.947      78.569     -42.068
  H       47.264      77.685     -43.578
  H       48.577      78.604     -42.808
  P       47.388      81.149     -43.092
  C       44.930      81.833     -42.661
  O       46.159      81.411     -42.089
  C       43.759      81.253     -41.872
  O       42.527      81.737     -42.469
  C       43.711      79.716     -41.860
  O       43.559      79.228     -40.521
  C       42.458      79.377     -42.645
  O       41.795      78.216     -42.157
  C       41.612      80.633     -42.482
  N       37.192      78.872     -44.312
  C       37.726      78.828     -43.072
  N       38.862      79.400     -42.627
  C       39.453      80.107     -43.606
  C       39.016      80.265     -44.910
  C       37.835      79.589     -45.262
  N       37.320      79.589     -46.540
  N       39.891      81.058     -45.630
  C       40.863      81.337     -44.784
  N       40.650      80.771     -43.554
  O       47.124      82.177     -44.293
  O       48.750      81.323     -42.510
  H       41.040      78.043     -42.749
  H       47.944      82.678     -44.463
  H       37.169      78.249     -42.340
  H       41.759      81.898     -45.020
  H       41.069      80.637     -41.529
  H       42.728      79.208     -43.694
  H       44.600      79.264     -42.311
  H       43.796      81.643     -40.848
  H       44.869      81.485     -43.698
  H       36.538      78.986     -46.730
  H       37.857      80.029     -47.274
  H       44.890      82.928     -42.655
  P       44.898      78.698     -39.802
  C       44.667      76.192     -40.449
  O       45.407      77.397     -40.598
  O       44.358      78.118     -38.412
  O       45.925      79.758     -39.588
  H       44.818      78.553     -37.668
  H       45.122      75.420     -41.033
  H       43.662      76.347     -40.783
  H       44.660      75.903     -39.419

 6  7  8  9  10  11  12  13  14  15  25  28  32  33  34  35 0
 6-311+G(2d,p)
 ****
 36  39  40 0
 6-311+G(2d,p)
 ****
 1  2  3  4  5  16  17  18  19  20  21  22  23  24 0
 3-21G
 ****
 26  27  29  30  31  37  38  41  42  43  44  45  46  47  48 0
 3-21G
 ****


