%nproc=1
%NoSave
%Mem=1900MB
#P OB98/GEN NMR

erre ene a

0 1
  C      665.936     718.894    -163.598
  O      664.547     719.204    -163.657
  P      663.609     718.686    -162.438
  C      661.537     718.902    -164.008
  O      662.307     718.058    -163.150
  C      660.565     718.074    -164.852
  O      661.255     717.409    -165.903
  C      659.828     716.983    -164.065
  O      658.720     717.490    -163.346
  C      659.364     716.090    -165.198
  O      658.192     716.647    -165.825
  C      660.555     716.158    -166.176
  N      660.982     711.062    -165.949
  C      659.899     711.880    -166.041
  N      659.879     713.233    -166.078
  C      661.115     713.738    -165.998
  C      662.305     713.027    -165.858
  C      662.214     711.627    -165.867
  N      663.313     710.793    -165.804
  N      663.389     713.890    -165.795
  C      662.843     715.100    -165.892
  N      661.476     715.047    -166.030
  O      663.067     720.038    -161.798
  O      664.293     717.824    -161.451
  H      657.454     716.513    -165.198
  H      662.793     719.890    -160.868
  H      658.933     711.397    -166.078
  H      663.405     716.030    -165.876
  H      660.237     716.193    -167.216
  H      659.103     715.091    -164.869
  H      660.533     716.434    -163.421
  H      659.836     718.788    -165.290
  H      662.199     719.454    -164.691
  H      663.180     709.817    -166.001
  H      664.230     711.207    -165.939
  H      660.995     719.637    -163.391
  P      658.083     716.519    -162.215
  C      655.737     717.562    -162.625
  O      656.537     716.394    -162.602
  O      658.085     717.434    -160.898
  O      658.831     715.238    -162.037
  H      658.123     716.874    -160.099
  H      654.813     717.356    -163.191
  H      656.264     718.395    -163.112
  H      655.462     717.851    -161.620
  H      666.428     719.294    -164.460
  H      666.064     717.832    -163.576
  H      666.360     719.323    -162.714

 3  4  5  6  7  8  9  10  11  12  22  25  29  30  31  32 0
 6-311+G(2d,p)
 ****
 33  36  37 0
 6-311+G(2d,p)
 ****
 1  2  13  14  15  16  17  18  19  20  21  23  24  26 0
 3-21G
 ****
 27  28  34  35  38  39  40  41  42  43  44  45  46  47  48 0
 3-21G
 ****


