%nproc=1
%NoSave
%Mem=1900MB
#P OB98/GEN NMR

erre ene a

0 1
  C     -184.308    -111.145     566.845
  O     -184.616    -111.480     568.189
  P     -183.419    -111.918     569.159
  C     -182.938    -109.388     569.533
  O     -182.403    -110.679     569.268
  C     -182.065    -108.654     570.553
  O     -182.080    -109.386     571.818
  C     -180.599    -108.502     570.131
  O     -180.125    -107.252     570.653
  C     -179.924    -109.648     570.864
  O     -178.522    -109.478     571.004
  C     -180.707    -109.617     572.183
  N     -180.553    -110.850     572.961
  C     -179.525    -110.890     573.893
  O     -178.740    -109.963     574.097
  N     -179.369    -112.077     574.558
  C     -180.068    -113.229     574.329
  O     -179.802    -114.288     574.875
  C     -181.146    -113.124     573.330
  C     -181.336    -111.956     572.704
  O     -182.612    -112.993     568.288
  O     -183.855    -112.478     570.471
  H     -178.373    -108.845     571.724
  H     -182.850    -113.898     568.562
  H     -178.633    -112.124     575.251
  H     -181.736    -114.011     573.133
  H     -182.111    -111.864     571.951
  H     -180.387    -108.768     572.789
  H     -180.099    -110.583     570.317
  H     -180.445    -108.546     569.048
  H     -182.512    -107.670     570.750
  H     -183.946    -109.491     569.933
  H     -183.002    -108.820     568.598
  P     -179.059    -106.426     569.780
  C     -180.479    -104.953     568.155
  O     -179.750    -106.140     568.364
  O     -177.981    -107.570     569.464
  O     -178.484    -105.246     570.492
  H     -178.391    -108.419     569.221
  H     -180.049    -104.111     568.702
  H     -181.512    -105.103     568.474
  H     -180.474    -104.718     567.086
  H     -185.206    -110.876     566.330
  H     -183.858    -111.987     566.362
  H     -183.627    -110.319     566.830

 3  4  5  6  7  8  9  10  11  12  13  23  28  29  30  31  32 0
 6-311+G(2d,p)
 ****
 33  34 0
 6-311+G(2d,p)
 ****
 1  2  14  15  16  17  18  19  20  21  22  24  25  26 0
 3-21G
 ****
 27  35  36  37  38  39  40  41  42  43  44  45 0
 3-21G
 ****


