%nproc=1
%NoSave
%Mem=1900MB
#P OB98/GEN NMR

erre ene a

0 1
  C      -41.889      16.724      90.266
  O      -40.686      17.463      90.399
  P      -40.449      18.716      89.430
  C      -38.532      17.797      87.932
  O      -39.903      18.154      88.030
  C      -38.211      17.301      86.521
  O      -38.971      16.083      86.252
  C      -38.553      18.306      85.409
  O      -37.581      18.145      84.366
  C      -39.905      17.814      84.927
  O      -40.241      18.286      83.632
  C      -39.689      16.300      85.020
  N      -40.941      15.544      84.985
  C      -41.245      14.865      83.809
  O      -40.529      14.867      82.808
  N      -42.452      14.219      83.790
  C      -43.402      14.258      84.768
  O      -44.512      13.754      84.640
  C      -43.025      14.990      85.988
  C      -41.832      15.589      86.041
  O      -39.175      19.440      90.072
  O      -41.615      19.640      89.309
  H      -41.095      17.884      83.385
  H      -39.452      20.208      90.606
  H      -42.684      13.712      82.949
  H      -43.748      15.024      86.794
  H      -41.537      16.153      86.919
  H      -39.037      15.961      84.205
  H      -40.684      18.151      85.622
  H      -38.577      19.346      85.752
  H      -37.147      17.034      86.478
  H      -38.317      17.002      88.649
  H      -37.908      18.660      88.189
  P      -37.062      19.466      83.611
  C      -38.278      18.884      81.370
  O      -38.122      19.778      82.451
  O      -35.793      18.882      82.825
  O      -36.729      20.593      84.532
  H      -35.970      18.019      82.417
  H      -38.134      17.847      81.682
  H      -37.556      19.131      80.589
  H      -39.287      18.993      80.963
  H      -41.898      15.925      90.978
  H      -41.952      16.321      89.277
  H      -42.725      17.368      90.443

 3  4  5  6  7  8  9  10  11  12  13  23  28  29  30  31  32 0
 6-311+G(2d,p)
 ****
 33  34 0
 6-311+G(2d,p)
 ****
 1  2  14  15  16  17  18  19  20  21  22  24  25  26 0
 3-21G
 ****
 27  35  36  37  38  39  40  41  42  43  44  45 0
 3-21G
 ****


