%nproc=1
%NoSave
%Mem=1900MB
#P OB98/GEN NMR

erre ene a

0 1
  C      719.900    -258.814    -513.532
  O      720.637    -257.783    -512.931
  P      719.966    -256.632    -512.030
  C      719.722    -254.342    -513.255
  O      719.163    -255.635    -513.000
  C      720.634    -254.316    -514.480
  O      719.951    -254.912    -515.610
  C      720.942    -252.865    -514.871
  O      721.980    -252.152    -514.238
  C      721.020    -252.888    -516.404
  O      722.354    -252.941    -516.890
  C      720.255    -254.160    -516.783
  N      717.782    -254.590    -521.195
  C      718.918    -255.256    -520.771
  N      719.581    -255.970    -521.717
  N      719.377    -255.188    -519.547
  C      718.657    -254.356    -518.752
  C      717.507    -253.676    -519.043
  C      716.991    -253.789    -520.393
  O      716.031    -253.172    -520.836
  N      717.106    -252.882    -518.015
  C      718.026    -253.052    -517.088
  N      719.014    -253.905    -517.516
  O      720.813    -256.061    -510.937
  O      718.763    -257.454    -511.316
  H      722.795    -252.081    -516.711
  H      718.657    -257.098    -510.425
  H      717.520    -254.627    -522.178
  H      718.052    -252.542    -516.129
  H      720.873    -254.804    -517.427
  H      720.583    -251.964    -516.817
  H      719.340    -255.927    -522.685
  H      720.043    -252.282    -514.651
  H      720.505    -256.333    -521.478
  H      721.541    -254.933    -514.329
  H      720.284    -254.058    -512.347
  H      718.920    -253.624    -513.378
  P      722.161    -250.571    -514.206
  C      724.019    -249.363    -515.505
  O      722.797    -250.094    -515.598
  O      723.343    -250.316    -513.147
  O      720.945    -249.811    -513.783
  H      723.303    -249.409    -512.802
  H      724.200    -248.863    -516.447
  H      724.842    -250.064    -515.300
  H      723.972    -248.631    -514.688
  H      720.562    -259.454    -514.077
  H      719.178    -258.394    -514.201
  H      719.398    -259.381    -512.776

 3  4  5  6  7  8  9  10  11  12  23  26  30  31 0
 6-311+G(2d,p)
 ****
 33  35  36  37  38 0
 6-311+G(2d,p)
 ****
 1  2  13  14  15  16  17  18  19  20  21  22  24  25 0
 3-21G
 ****
 27  28  29  32  34  39  40  41  42  43  44  45  46  47  48  49 0
 3-21G
 ****


