%nproc=1
%NoSave
%Mem=1900MB
#P OB98/GEN NMR

erre ene a

0 1
  C      -70.365     138.476     -43.190
  O      -70.564     138.170     -44.569
  P      -72.027     138.371     -45.193
  C      -71.854     138.743     -47.741
  O      -72.026     137.796     -46.692
  C      -71.987     138.060     -49.112
  O      -70.756     137.346     -49.402
  C      -73.105     137.016     -49.209
  O      -74.405     137.452     -49.598
  C      -72.587     136.129     -50.339
  O      -72.929     136.711     -51.611
  C      -71.073     136.155     -50.154
  N      -69.611     131.285     -50.719
  C      -70.065     132.201     -51.603
  N      -70.435     133.476     -51.370
  C      -70.284     133.788     -50.074
  C      -69.831     132.961     -49.060
  C      -69.485     131.649     -49.422
  N      -69.034     130.713     -48.521
  N      -69.821     133.630     -47.853
  C      -70.280     134.834     -48.134
  N      -70.561     134.984     -49.463
  O      -72.628     139.725     -45.025
  O      -72.889     137.267     -44.410
  H      -72.611     136.091     -52.293
  H      -73.779     137.629     -44.232
  H      -70.146     131.862     -52.632
  H      -70.424     135.623     -47.410
  H      -70.538     136.221     -51.107
  H      -73.033     135.130     -50.322
  H      -73.176     136.434     -48.283
  H      -72.125     138.828     -49.884
  H      -70.869     139.208     -47.656
  H      -68.850     129.781     -48.856
  H      -68.989     130.950     -47.540
  H      -72.590     139.534     -47.593
  P      -75.619     137.491     -48.555
  C      -76.410     139.671     -49.766
  O      -76.744     138.406     -49.238
  O      -75.251     137.892     -47.170
  O      -76.231     136.019     -48.680
  H      -76.660     135.833     -49.531
  H      -77.249     140.032     -50.367
  H      -75.524     139.606     -50.401
  H      -76.231     140.376     -48.950
  H      -69.344     138.291     -42.927
  H      -71.004     137.860     -42.592
  H      -70.597     139.506     -43.016

 3  4  5  6  7  8  9  10  11  12  22  25  29  30  31  32 0
 6-311+G(2d,p)
 ****
 33  36  37 0
 6-311+G(2d,p)
 ****
 1  2  13  14  15  16  17  18  19  20  21  23  24  26 0
 3-21G
 ****
 27  28  34  35  38  39  40  41  42  43  44  45  46  47  48 0
 3-21G
 ****


