%nproc=1
%NoSave
%Mem=1900MB
#P OB98/GEN NMR

erre ene a

0 1
  C      511.679     -38.410      56.853
  O      510.362     -37.972      56.563
  P      509.171     -39.029      56.776
  C      509.524     -39.890      54.343
  O      509.437     -40.215      55.728
  C      509.964     -41.109      53.541
  O      511.306     -41.479      53.897
  C      509.119     -42.353      53.788
  O      507.891     -42.262      53.091
  C      510.045     -43.455      53.276
  O      509.890     -43.642      51.856
  C      511.449     -42.890      53.606
  N      512.092     -43.600      54.707
  C      512.891     -44.692      54.339
  O      512.996     -45.010      53.153
  N      513.507     -45.413      55.333
  C      513.338     -45.079      56.572
  N      513.980     -45.826      57.516
  C      512.490     -43.945      57.001
  C      511.894     -43.263      56.027
  O      507.898     -38.275      56.162
  O      508.953     -39.448      58.196
  H      510.646     -44.206      51.585
  H      507.074     -38.583      56.576
  H      512.386     -43.716      58.048
  H      511.251     -42.418      56.248
  H      512.103     -42.960      52.727
  H      509.835     -44.413      53.753
  H      508.939     -42.487      54.860
  H      509.955     -40.840      52.472
  H      514.550     -46.602      57.190
  H      510.258     -39.091      54.208
  H      513.931     -45.633      58.505
  H      508.550     -39.535      54.002
  P      506.639     -43.069      53.685
  C      507.047     -44.834      51.867
  O      506.886     -44.589      53.253
  O      505.452     -42.624      52.693
  O      506.296     -42.825      55.115
  H      504.604     -42.976      53.017
  H      507.360     -45.872      51.732
  H      507.820     -44.174      51.452
  H      506.098     -44.681      51.350
  H      512.369     -37.613      56.669
  H      511.923     -39.244      56.229
  H      511.739     -38.704      57.880

 3  4  5  6  7  8  9  10  11  12  13  21  23  27  28  29  30  32 0
 6-311+G(2d,p)
 ****
 34  35 0
 6-311+G(2d,p)
 ****
 1  2  14  15  16  17  18  19  20  22  24  25  26 0
 3-21G
 ****
 31  33  36  37  38  39  40  41  42  43  44  45  46 0
 3-21G
 ****


