%nproc=1
%NoSave
%Mem=1900MB
#P OB98/GEN NMR

erre ene a

0 1
  C      365.408     130.235     554.202
  O      365.448     129.560     555.442
  H      365.734     131.269     554.352
  H      364.383     130.247     553.818
  H      366.069     129.764     553.472
  P      365.300     127.964     555.464
  C      362.750     127.968     555.060
  O      364.029     127.612     554.540
  C      361.631     127.428     554.160
  O      361.566     128.255     552.960
  C      361.838     125.974     553.707
  O      360.537     125.389     553.548
  C      362.505     126.156     552.361
  O      362.432     124.982     551.580
  C      361.745     127.371     551.828
  N      362.443     128.034     550.728
  C      361.930     127.826     549.450
  O      360.953     127.108     549.221
  N      362.588     128.447     548.427
  C      363.735     129.183     548.544
  O      364.306     129.685     547.584
  C      364.262     129.325     549.915
  C      363.602     128.756     550.925
  O      365.285     127.328     556.807
  O      366.525     127.441     554.568
  H      362.656     125.188     550.646
  H      366.816     126.564     554.881
  H      362.222     128.311     547.496
  H      365.174     129.896     550.039
  H      363.970     128.854     551.945
  H      360.749     127.080     551.468
  H      363.566     126.401     552.487
  H      362.438     125.387     554.407
  H      360.671     127.552     554.680
  H      362.695     129.059     555.111
  H      362.637     127.559     556.075
  P      359.749     124.695     554.756
  C      359.663     122.180     554.178
  O      360.311     123.192     554.942
  O      358.271     124.774     554.658
  O      360.280     125.445     556.071
  H      359.590     125.421     556.756
  H      360.117     121.233     554.382
  H      359.758     122.404     553.136
  H      358.627     122.143     554.442

 6  7  8  9  10  11  12  13  14  15  16  26  31  32  33  34  35 0
 6-311+G(2d,p)
 ****
 36  37 0
 6-311+G(2d,p)
 ****
 1  2  3  4  5  17  18  19  20  21  22  23  24  25 0
 3-21G
 ****
 27  28  29  30  38  39  40  41  42  43  44  45 0
 3-21G
 ****


