%nproc=1
%NoSave
%Mem=1900MB
#P OB98/GEN NMR

erre ene a

0 1
  C     -893.820    -557.185    -351.008
  O     -894.120    -558.576    -350.924
  H     -893.240    -556.905    -350.129
  H     -894.750    -556.605    -351.033
  H     -893.220    -556.984    -351.896
  P     -894.990    -559.194    -352.119
  C     -893.250    -561.091    -352.232
  O     -894.630    -560.761    -352.106
  C     -893.080    -562.424    -352.965
  O     -893.630    -563.489    -352.152
  C     -893.800    -562.464    -354.317
  O     -893.000    -563.182    -355.266
  C     -895.070    -563.237    -354.025
  O     -895.590    -563.880    -355.188
  C     -894.600    -564.198    -352.933
  N     -898.130    -567.833    -352.311
  C     -897.070    -567.735    -353.151
  N     -896.170    -566.737    -353.235
  C     -896.410    -565.796    -352.310
  C     -897.450    -565.768    -351.378
  C     -898.320    -566.855    -351.397
  N     -899.410    -566.973    -350.573
  N     -897.360    -564.622    -350.616
  C     -896.310    -563.968    -351.068
  N     -895.700    -564.635    -352.097
  O     -894.860    -558.517    -353.446
  O     -896.460    -559.177    -351.487
  H     -895.770    -563.189    -355.862
  H     -896.460    -559.488    -350.566
  H     -896.940    -568.557    -353.866
  H     -895.930    -563.013    -350.689
  H     -894.120    -565.103    -353.334
  H     -895.840    -562.560    -353.646
  H     -894.030    -561.457    -354.711
  H     -892.010    -562.631    -353.082
  H     -892.790    -561.169    -351.234
  H     -900.000    -567.775    -350.657
  H     -899.580    -566.242    -349.869
  H     -892.750    -560.287    -352.779
  P     -891.920    -562.379    -356.121
  C     -890.190    -564.267    -355.799
  O     -890.850    -563.418    -356.712
  O     -891.340    -561.160    -355.474
  O     -892.760    -561.974    -357.430
  H     -892.490    -561.069    -357.714
  H     -889.511    -564.901    -356.329
  H     -890.911    -564.867    -355.285
  H     -889.648    -563.676    -355.091

 6  7  8  9  10  11  12  13  14  15  25  28  32  33  34  35 0
 6-311+G(2d,p)
 ****
 36  39  40 0
 6-311+G(2d,p)
 ****
 1  2  3  4  5  16  17  18  19  20  21  22  23  24 0
 3-21G
 ****
 26  27  29  30  31  37  38  41  42  43  44  45  46  47 0
 3-21G
 ****
 48 0
 3-21G
 ****


