%nproc=1
%NoSave
%Mem=1900MB
#P OB98/GEN NMR

erre ene a

0 1
  C      448.227     873.171     832.023
  O      448.598     873.419     830.685
  P      447.826     872.713     829.460
  C      448.891     874.360     827.792
  O      448.742     872.982     828.175
  C      450.348     874.791     827.978
  O      451.195     873.832     827.321
  C      450.720     876.152     827.384
  O      450.425     877.275     828.225
  C      452.229     875.996     827.280
  O      452.837     876.216     828.569
  C      452.381     874.547     826.848
  N      455.585     873.779     822.948
  C      455.794     873.856     824.270
  N      454.889     874.069     825.242
  C      453.644     874.193     824.728
  C      453.293     874.132     823.386
  C      454.330     873.916     822.465
  N      454.117     873.836     821.089
  N      451.928     874.307     823.246
  C      451.470     874.453     824.466
  N      452.478     874.391     825.403
  O      446.389     873.081     829.339
  O      448.054     871.137     829.725
  H      452.736     877.159     828.773
  H      447.397     870.619     829.204
  H      456.826     873.717     824.612
  H      450.428     874.626     824.738
  H      453.253     874.054     827.304
  H      452.669     876.737     826.579
  H      450.280     876.268     826.387
  H      450.561     874.763     829.070
  H      448.241     874.964     828.434
  H      454.902     873.546     820.524
  H      453.151     873.754     820.772
  H      448.565     874.487     826.757
  P      449.926     878.618     827.482
  C      448.909     879.234     829.830
  O      449.585     879.656     828.661
  O      448.835     878.422     826.472
  O      451.288     879.184     826.871
  H      451.951     879.484     827.512
  H      448.930     880.052     830.585
  H      449.389     878.367     830.256
  H      447.854     878.994     829.582
  H      448.859     873.733     832.678
  H      448.331     872.127     832.234
  H      447.209     873.465     832.171

 3  4  5  6  7  8  9  10  11  12  22  25  29  30  31  32 0
 6-311+G(2d,p)
 ****
 33  36  37 0
 6-311+G(2d,p)
 ****
 1  2  13  14  15  16  17  18  19  20  21  23  24  26 0
 3-21G
 ****
 27  28  34  35  38  39  40  41  42  43  44  45  46  47  48 0
 3-21G
 ****


