%nproc=1
%NoSave
%Mem=1900MB
#P OB98/GEN NMR

erre ene a

0 1
  C      -53.270    1109.763    -588.447
  O      -53.403    1109.904    -587.033
  P      -54.679    1109.199    -586.337
  C      -55.348    1111.542    -585.459
  O      -55.757    1110.367    -586.152
  C      -56.549    1112.470    -585.210
  O      -56.993    1113.031    -586.474
  C      -57.778    1111.789    -584.626
  O      -57.673    1111.604    -583.231
  C      -58.872    1112.774    -584.987
  O      -58.892    1113.837    -584.013
  C      -58.406    1113.304    -586.355
  N      -62.299    1113.677    -589.572
  C      -61.920    1114.528    -588.550
  N      -62.656    1115.637    -588.367
  N      -60.897    1114.280    -587.763
  C      -60.215    1113.162    -588.083
  C      -60.508    1112.234    -589.065
  C      -61.674    1112.490    -589.901
  O      -62.094    1111.727    -590.777
  N      -59.585    1111.226    -589.097
  C      -58.724    1111.553    -588.159
  N      -59.078    1112.696    -587.491
  O      -54.164    1108.943    -584.835
  O      -55.154    1107.955    -586.988
  H      -59.674    1114.394    -584.198
  H      -54.662    1108.183    -584.441
  H      -63.072    1113.909    -590.149
  H      -57.826    1110.974    -587.916
  H      -58.537    1114.399    -586.415
  H      -59.870    1112.320    -584.982
  H      -63.396    1115.931    -589.020
  H      -57.974    1110.825    -585.148
  H      -62.352    1116.283    -587.643
  H      -56.235    1113.288    -584.576
  H      -54.608    1112.091    -586.041
  H      -54.897    1111.260    -584.502
  P      -58.838    1110.755    -582.526
  C      -59.375    1112.866    -581.117
  O      -59.879    1111.837    -581.940
  O      -58.124    1110.164    -581.214
  O      -59.408    1109.677    -583.375
  H      -58.569    1109.333    -580.926
  H      -58.376    1113.216    -581.443
  H      -59.324    1112.529    -580.093
  H      -60.058    1113.742    -581.169
  H      -52.389    1110.274    -588.775
  H      -54.127    1110.184    -588.930
  H      -53.194    1108.725    -588.696

 3  4  5  6  7  8  9  10  11  12  23  26  30  31  33  0
 6-311+G(2d,p)
 ****
 35  36  37  38 0
 6-311+G(2d,p)
 ****
 1  2  13  14  15  16  17  18  19  20  21  22  24  25  27  28  29 0
 3-21G
 ****
 32  34  39  40  41  42  43  44  45  46  47  48  49 0
 3-21G
 ****


