%nproc=1
%NoSave
%Mem=1900MB
#P OB98/GEN NMR

erre ene a

0 1
  C       27.844      40.553     -31.871
  O       27.896      40.529     -33.283
  P       28.407      41.761     -34.163
  C       29.335      40.380     -36.158
  O       29.631      41.254     -35.076
  C       30.483      39.410     -36.476
  O       30.789      38.627     -35.304
  C       30.048      38.415     -37.558
  O       30.123      38.770     -38.924
  C       30.746      37.109     -37.197
  O       31.942      36.900     -37.950
  C       31.071      37.279     -35.711
  N       31.216      32.911     -33.140
  C       32.261      33.643     -33.671
  N       33.467      33.033     -33.679
  N       32.126      34.845     -34.166
  C       30.842      35.282     -34.179
  C       29.729      34.655     -33.668
  C       29.901      33.345     -33.085
  O       28.988      32.628     -32.679
  N       28.583      35.365     -33.921
  C       28.995      36.403     -34.620
  N       30.353      36.375     -34.834
  O       28.529      43.078     -33.467
  O       27.213      41.894     -35.242
  H       32.261      35.998     -37.762
  H       27.114      42.842     -35.452
  H       31.370      31.955     -32.841
  H       28.352      37.179     -35.020
  H       32.142      37.116     -35.529
  H       30.096      36.251     -37.405
  H       33.580      32.058     -33.440
  H       28.981      38.216     -37.394
  H       34.215      33.465     -34.209
  H       31.401      39.952     -36.721
  H       29.102      41.002     -37.028
  H       28.434      39.803     -35.926
  P       28.892      38.917     -39.935
  C       28.571      41.425     -40.331
  O       28.129      40.287     -39.609
  O       27.846      37.805     -39.451
  O       29.235      38.714     -41.376
  H       27.246      37.573     -40.183
  H       28.212      42.326     -39.829
  H       28.160      41.394     -41.346
  H       29.665      41.455     -40.382
  H       27.469      39.617     -31.512
  H       27.197      41.343     -31.551
  H       28.827      40.717     -31.481

 3  4  5  6  7  8  9  10  11  12  23  26  30  31 0
 6-311+G(2d,p)
 ****
 33  35  36  37  38 0
 6-311+G(2d,p)
 ****
 1  2  13  14  15  16  17  18  19  20  21  22  24  25 0
 3-21G
 ****
 27  28  29  32  34  39  40  41  42  43  44  45  46  47  48  49 0
 3-21G
 ****


