%nproc=1
%NoSave
%Mem=1900MB
#P OB98/GEN NMR

erre ene a

0 1
  C      -57.190     -12.626      30.091
  O      -55.781     -12.579      30.038
  P      -54.881     -13.425      31.056
  C      -55.916     -12.074      32.990
  O      -54.713     -12.529      32.380
  C      -55.598     -11.140      34.163
  O      -56.855     -10.636      34.712
  C      -54.834     -11.847      35.300
  O      -53.633     -11.187      35.704
  C      -55.895     -11.990      36.378
  O      -55.371     -12.175      37.679
  C      -56.746     -10.737      36.145
  N      -58.050     -10.816      36.799
  C      -58.215     -10.090      37.974
  O      -57.347      -9.387      38.484
  N      -59.418     -10.239      38.606
  C      -60.404     -11.111      38.255
  O      -61.416     -11.265      38.924
  C      -60.157     -11.881      37.027
  C      -59.022     -11.688      36.351
  O      -53.598     -13.940      30.497
  O      -55.881     -14.571      31.557
  H      -56.103     -12.454      38.261
  H      -56.686     -14.249      31.997
  H      -59.550      -9.719      39.459
  H      -60.917     -12.588      36.729
  H      -58.812     -12.241      35.442
  H      -56.238      -9.839      36.497
  H      -56.490     -12.882      36.145
  H      -54.496     -12.842      34.988
  H      -55.027     -10.294      33.770
  H      -56.471     -12.938      33.361
  H      -56.545     -11.575      32.244
  P      -52.188     -11.869      35.771
  C      -51.089     -11.017      37.968
  O      -51.208     -10.886      36.566
  O      -51.660     -12.369      34.468
  O      -52.395     -13.082      36.797
  H      -51.776     -13.803      36.579
  H      -50.834     -10.042      38.390
  H      -50.282     -11.718      38.196
  H      -52.020     -11.369      38.420
  H      -57.597     -11.993      29.330
  H      -57.522     -12.289      31.051
  H      -57.520     -13.632      29.932

 3  4  5  6  7  8  9  10  11  12  13  23  28  29  30  31  32 0
 6-311+G(2d,p)
 ****
 33  34 0
 6-311+G(2d,p)
 ****
 1  2  14  15  16  17  18  19  20  21  22  24  25  26  27 0
 3-21G
 ****
 35  36  37  38  39  40  41  42  43  44  45 0
 3-21G
 ****


