%nproc=1
%NoSave
%Mem=1900MB
#P OB98/GEN NMR

erre ene a

0 1
  C      208.800     176.235     -66.210
  O      208.525     174.885     -65.899
  H      209.316     176.279     -67.172
  H      209.455     176.656     -65.443
  H      207.879     176.819     -66.275
  P      207.444     174.600     -64.751
  C      205.424     174.049     -66.289
  O      206.007     174.964     -65.372
  C      204.231     174.687     -66.994
  O      203.157     174.869     -66.023
  C      204.530     176.061     -67.622
  O      203.798     176.179     -68.849
  C      203.932     177.027     -66.617
  O      203.614     178.287     -67.196
  C      202.713     176.235     -66.150
  N      200.499     180.259     -64.129
  C      200.741     179.935     -65.450
  N      200.397     180.851     -66.377
  N      201.283     178.810     -65.829
  C      201.563     177.973     -64.802
  C      201.376     178.176     -63.453
  C      200.792     179.436     -63.044
  O      200.574     179.786     -61.888
  N      201.850     177.111     -62.726
  C      202.337     176.277     -63.634
  N      202.187     176.759     -64.905
  O      207.715     175.788     -63.711
  O      207.536     173.263     -64.101
  H      202.946     178.724     -66.630
  H      208.319     175.482     -63.009
  H      200.097     181.148     -63.890
  H      202.820     175.334     -63.421
  H      201.892     176.263     -66.880
  H      204.633     177.192     -65.790
  H      199.946     181.731     -66.168
  H      205.594     176.242     -67.807
  H      200.532     180.612     -67.355
  H      203.855     173.990     -67.755
  H      205.082     173.163     -65.741
  H      206.179     173.740     -67.018
  P      204.619     176.496     -70.187
  C      203.586     174.571     -71.597
  O      204.760     175.140     -71.037
  O      206.110     176.744     -69.651
  O      204.111     177.674     -70.946
  H      206.547     177.423     -70.196
  H      203.841     173.679     -72.130
  H      203.136     175.271     -72.269
  H      202.896     174.334     -70.814

 6  7  8  9  10  11  12  13  14  15  26  29  33  34 0
 6-311+G(2d,p)
 ****
 36  38  39  40  41 0
 6-311+G(2d,p)
 ****
 1  2  3  4  5  16  17  18  19  20  21  22  23  24  25 0
 3-21G
 ****
 27  28  30  31  32  35  37  42  43  44  45  46  47 0
 3-21G
 ****
 48  49 0
 3-21G
 ****


