%nproc=1
%NoSave
%Mem=1900MB
#P OB98/GEN NMR

erre ene a

0 1
  C     -159.393     137.549     299.605
  O     -159.671     136.399     298.834
  H     -159.776     138.444     299.107
  H     -159.884     137.448     300.577
  H     -158.315     137.643     299.762
  P     -159.123     136.405     297.325
  C     -157.268     134.690     297.904
  O     -157.577     135.981     297.402
  C     -157.326     133.661     296.780
  O     -156.303     133.940     295.798
  C     -157.078     132.223     297.216
  O     -158.231     131.644     297.812
  C     -156.747     131.577     295.879
  O     -157.969     131.287     295.168
  C     -155.969     132.682     295.157
  N     -151.952     130.161     293.186
  C     -153.274     130.100     292.917
  N     -154.284     130.790     293.486
  C     -153.815     131.636     294.421
  C     -152.498     131.807     294.802
  C     -151.539     131.021     294.146
  N     -150.192     131.080     294.439
  N     -152.399     132.771     295.782
  C     -153.636     133.174     295.992
  N     -154.529     132.511     295.194
  O     -159.063     137.963     296.955
  O     -159.950     135.642     296.343
  H     -157.703     130.952     294.290
  H     -159.294     138.072     296.015
  H     -153.560     129.402     292.131
  H     -153.924     133.940     296.698
  H     -156.274     132.768     294.106
  H     -156.201     130.636     295.981
  H     -156.206     132.155     297.878
  H     -158.301     133.756     296.284
  H     -157.995     134.418     298.677
  H     -149.541     130.645     293.810
  H     -149.893     131.731     295.158
  H     -156.267     134.714     298.349
  P     -158.021     130.318     298.695
  C     -158.772     131.595     300.826
  O     -157.752     130.833     300.188
  O     -156.583     129.791     298.222
  O     -159.073     129.273     298.537
  H     -156.519     128.830     298.370
  H     -158.452     131.866     301.810
  H     -159.666     131.011     300.890
  H     -158.964     132.480     300.257

 6  7  8  9  10  11  12  13  14  15  25  28  32  33  34  35 0
 6-311+G(2d,p)
 ****
 36  39  40 0
 6-311+G(2d,p)
 ****
 1  2  3  4  5  16  17  18  19  20  21  22  23  24 0
 3-21G
 ****
 26  27  29  30  31  37  38  41  42  43  44  45  46  47  48 0
 3-21G
 ****


