%nproc=1
%NoSave
%Mem=1900MB
#P OB98/GEN NMR

erre ene a

0 1
  C      -56.238      64.803     120.160
  O      -56.997      63.605     120.427
  P      -56.338      62.156     120.585
  C      -56.544      61.670     118.050
  O      -55.679      61.746     119.175
  C      -55.806      61.132     116.816
  O      -54.667      60.330     117.229
  C      -56.611      60.199     115.926
  O      -57.584      60.887     115.156
  C      -55.508      59.556     115.100
  O      -55.140      60.380     113.972
  C      -54.334      59.494     116.100
  N      -54.041      58.139     116.539
  C      -53.522      57.264     115.552
  O      -53.433      57.639     114.381
  N      -53.159      55.993     115.936
  C      -53.376      55.595     117.156
  N      -52.980      54.336     117.480
  C      -54.031      56.442     118.178
  C      -54.332      57.676     117.797
  O      -57.263      61.116     121.142
  O      -55.076      62.368     121.563
  H      -54.872      61.534     122.024
  H      -55.841      60.276     113.301
  H      -54.243      56.041     119.165
  H      -54.814      58.370     118.486
  H      -53.440      59.938     115.658
  H      -55.806      58.579     114.693
  H      -57.101      59.435     116.545
  H      -55.434      62.002     116.240
  H      -52.515      53.786     116.763
  H      -56.912      62.680     117.831
  H      -53.073      53.940     118.410
  H      -57.408      61.031     118.301
  P      -59.121      60.696     115.592
  C      -59.368      58.557     114.106
  O      -59.469      59.129     115.405
  O      -59.935      61.404     114.397
  O      -59.477      61.272     116.918
  H      -60.713      61.878     114.768
  H      -59.160      57.490     114.226
  H      -58.573      59.026     113.525
  H      -60.332      58.675     113.588
  H      -56.902      65.640     120.098
  H      -55.714      64.694     119.233
  H      -55.535      64.963     120.950

 3  4  5  6  7  8  9  10  11  12  13  24  27  28  29  30  32 0
 6-311+G(2d,p)
 ****
 34  35 0
 6-311+G(2d,p)
 ****
 1  2  14  15  16  17  18  19  20  21  22  23  25  26 0
 3-21G
 ****
 31  33  36  37  38  39  40  41  42  43  44  45  46 0
 3-21G
 ****


