%nproc=1
%NoSave
%Mem=1900MB
#P OB98/GEN NMR

erre ene a

0 1
  C      103.853    -169.269    -141.041
  O      102.934    -168.280    -141.466
  H      103.308    -170.196    -140.850
  H      104.347    -168.952    -140.119
  H      104.599    -169.450    -141.820
  P      103.541    -166.839    -141.820
  C      104.636    -167.588    -144.056
  O      104.832    -167.104    -142.734
  C      105.898    -167.358    -144.881
  O      106.043    -165.947    -145.172
  C      107.182    -167.757    -144.167
  O      107.403    -169.156    -144.194
  C      108.214    -166.966    -144.955
  O      108.599    -167.650    -146.153
  C      107.458    -165.677    -145.297
  N      110.971    -162.070    -144.459
  C      110.820    -162.966    -145.457
  N      109.847    -163.889    -145.614
  C      108.951    -163.806    -144.616
  C      108.971    -162.942    -143.535
  C      110.044    -162.034    -143.475
  N      110.212    -161.138    -142.446
  N      107.902    -163.185    -142.697
  C      107.241    -164.173    -143.266
  N      107.835    -164.578    -144.429
  O      104.154    -166.353    -140.424
  O      102.563    -165.857    -142.369
  H      109.101    -167.004    -146.688
  H      103.536    -165.731    -139.996
  H      111.587    -162.949    -146.226
  H      106.340    -164.630    -142.875
  H      107.637    -165.352    -146.329
  H      109.115    -166.803    -144.362
  H      107.169    -167.390    -143.134
  H      105.798    -167.894    -145.834
  H      103.800    -167.052    -144.519
  H      104.393    -168.654    -144.011
  H      111.040    -160.565    -142.433
  H      109.588    -161.183    -141.650
  P      108.671    -169.726    -143.397
  C      107.463    -170.665    -141.284
  O      108.315    -169.670    -141.835
  O      109.780    -168.587    -143.577
  O      109.157    -171.054    -143.872
  H      110.665    -168.995    -143.651
  H      107.330    -170.481    -140.238
  H      107.905    -171.630    -141.423
  H      106.513    -170.633    -141.776

 6  7  8  9  10  11  12  13  14  15  25  28  32  33  34  35 0
 6-311+G(2d,p)
 ****
 36  37  40 0
 6-311+G(2d,p)
 ****
 1  2  3  4  5  16  17  18  19  20  21  22  23  24 0
 3-21G
 ****
 26  27  29  30  31  38  39 41  42  43  44  45  46  47  48 0
 3-21G
 ****


