%nproc=1
%NoSave
%Mem=1900MB
#P OB98/GEN NMR

erre ene a

0 1
  C      563.384     126.302     316.337
  O      562.339     126.124     315.407
  H      562.983     126.174     317.349
  H      563.803     127.308     316.251
  H      564.166     125.555     316.172
  P      562.690     126.371     313.866
  C      563.338     128.430     312.413
  O      562.918     127.948     313.685
  C      563.921     129.832     312.564
  O      565.101     129.787     313.404
  C      564.373     130.461     311.256
  O      563.301     130.993     310.500
  C      565.311     131.544     311.773
  O      564.602     132.734     312.132
  C      565.950     130.877     313.005
  N      567.318     130.447     312.738
  C      568.252     130.735     313.736
  O      567.961     131.314     314.779
  N      569.542     130.365     313.470
  C      569.993     129.800     312.315
  O      571.179     129.545     312.112
  C      568.964     129.529     311.288
  C      567.694     129.869     311.542
  O      561.297     126.103     313.124
  O      563.786     125.513     313.321
  H      561.332     125.248     312.655
  H      564.063     132.504     312.915
  H      570.234     130.568     314.176
  H      569.293     129.081     310.355
  H      566.927     129.690     310.796
  H      565.977     131.582     313.846
  H      566.038     131.822     311.010
  H      564.956     129.736     310.671
  H      563.175     130.473     313.062
  H      562.480     128.473     311.735
  H      564.080     127.739     311.998
  P      563.547     131.256     308.938
  C      565.569     132.422     307.726
  O      564.726     132.339     308.864
  O      562.220     132.074     308.564
  O      563.767     130.008     308.152
  H      561.864     132.554     309.336
  H      566.287     133.202     307.870
  H      564.979     132.636     306.860
  H      566.077     131.490     307.590

 6  7  8  9  10  11  12  13  14  15  16  27  31  32  33  34  35 0
 6-311+G(2d,p)
 ****
 36  37 0
 6-311+G(2d,p)
 ****
 1  2  3  4  5  17  18  19  20  21  22  23  24  25 0
 3-21G
 ****
 26  28  29  30  38  39  40  41  42  43  44  45 0
 3-21G
 ****


