%nproc=1
%NoSave
%Mem=1900MB
#P OB98/GEN NMR

erre ene a

0 1
  C     -184.090     609.359     420.947
  O     -184.619     608.160     420.419
  H     -183.031     609.414     420.687
  H     -184.184     609.365     422.037
  H     -184.604     610.227     420.518
  P     -186.163     607.792     420.682
  C     -188.132     607.034     419.217
  O     -186.770     607.431     419.232
  C     -188.775     607.324     417.862
  O     -188.776     608.762     417.629
  C     -188.056     606.668     416.677
  O     -189.003     606.029     415.816
  C     -187.410     607.833     415.942
  O     -187.165     607.567     414.570
  C     -188.428     608.947     416.238
  N     -187.882     610.280     415.972
  C     -188.178     610.824     414.713
  O     -188.858     610.181     413.907
  N     -187.640     612.033     414.384
  C     -186.841     612.637     415.211
  N     -186.318     613.825     414.810
  C     -186.490     612.084     416.542
  C     -187.041     610.920     416.856
  O     -186.926     608.823     421.447
  O     -186.122     606.370     421.419
  H     -186.892     608.398     414.134
  H     -186.964     606.243     421.918
  H     -185.815     612.623     417.193
  H     -186.841     610.435     417.797
  H     -189.340     608.818     415.638
  H     -186.453     608.077     416.425
  H     -187.306     605.930     416.987
  H     -189.835     607.024     417.904
  H     -186.584     614.169     413.894
  H     -188.664     607.571     420.025
  H     -185.674     614.374     415.359
  H     -188.184     605.955     419.419
  P     -189.149     604.432     415.978
  C     -191.088     602.711     415.781
  O     -190.620     604.016     415.479
  O     -189.201     604.217     417.559
  O     -188.030     603.669     415.354
  H     -188.373     603.792     417.858
  H     -192.074     602.586     415.386
  H     -191.109     602.576     416.842
  H     -190.433     601.987     415.342

 6  7  8  9  10  11  12  13  14  15  16  26  30  31  32  33  35 0
 6-311+G(2d,p)
 ****
 37  38 0
 6-311+G(2d,p)
 ****
 1  2  3  4  5  17  18  19  20  21  22  23  24  25 0
 3-21G
 ****
 27  28  29  34  36  39  40  41  42  43  44  45  46 0
 3-21G
 ****


