%nproc=1
%NoSave
%Mem=1900MB
#P OB98/GEN NMR

erre ene a

0 1
  C      126.522    -374.759      42.149
  O      127.851    -374.548      41.714
  H      126.519    -375.559      42.894
  H      125.897    -375.061      41.303
  H      126.120    -373.849      42.605
  P      128.103    -373.289      40.747
  C      130.473    -372.627      41.665
  O      129.695    -373.162      40.609
  C      131.965    -372.774      41.364
  O      132.334    -374.166      41.517
  C      132.353    -372.340      39.949
  O      133.649    -371.741      40.000
  C      132.435    -373.654      39.190
  O      133.264    -373.557      38.035
  C      132.952    -374.600      40.287
  N      132.654    -376.002      39.998
  C      133.632    -376.722      39.307
  O      134.678    -376.171      38.956
  N      133.391    -378.032      38.986
  C      132.245    -378.565      39.276
  N      132.057    -379.861      38.908
  C      131.166    -377.830      39.966
  C      131.440    -376.571      40.304
  O      127.704    -372.063      41.695
  O      127.353    -373.342      39.459
  H      133.324    -374.444      37.618
  H      128.061    -372.139      42.597
  H      130.224    -378.314      40.174
  H      130.709    -375.961      40.819
  H      134.039    -374.495      40.405
  H      131.438    -373.962      38.863
  H      131.637    -371.640      39.509
  H      132.529    -372.211      42.117
  H      132.813    -380.319      38.418
  H      130.240    -373.137      42.605
  H      131.188    -380.358      39.033
  H      130.209    -371.570      41.777
  P      133.824    -370.204      39.593
  C      135.382    -369.321      41.460
  O      135.257    -369.683      40.090
  O      132.676    -369.313      39.920
  O      134.027    -370.283      37.999
  H      133.525    -369.547      37.598
  H      136.382    -368.994      41.653
  H      135.159    -370.168      42.075
  H      134.699    -368.529      41.683

 6  7  8  9  10  11  12  13  14  15  16  26  30  31  32  33  35 0
 6-311+G(2d,p)
 ****
 37  38 0
 6-311+G(2d,p)
 ****
 1  2  3  4  5  17  18  19  20  21  22  23  24  25 0
 3-21G
 ****
 27  28  29  34  36  39  40  41  42  43  44  45  46 0
 3-21G
 ****


