%nproc=1
%NoSave
%Mem=1900MB
#P OB98/GEN NMR

erre ene a

0 1
  C      640.440    -460.531     -68.299
  O      640.586    -461.863     -67.822
  P      639.265    -462.764     -67.736
  C      637.041    -462.449     -66.440
  O      638.438    -462.211     -66.474
  C      636.436    -461.908     -65.144
  O      636.671    -460.484     -65.069
  C      634.919    -462.076     -65.039
  O      634.574    -463.390     -64.609
  C      634.605    -461.041     -63.973
  O      634.854    -461.590     -62.661
  C      635.596    -459.906     -64.287
  N      632.574    -455.851     -64.046
  C      632.956    -456.737     -63.058
  N      632.472    -456.482     -61.818
  N      633.720    -457.771     -63.259
  C      634.150    -457.873     -64.535
  C      633.849    -457.061     -65.617
  C      632.956    -455.945     -65.379
  O      632.531    -455.166     -66.244
  N      634.490    -457.479     -66.752
  C      635.212    -458.512     -66.357
  N      635.018    -458.814     -65.026
  O      639.822    -464.172     -67.221
  O      638.501    -462.904     -69.011
  H      634.139    -462.246     -62.488
  H      639.220    -464.885     -67.495
  H      631.984    -455.063     -63.842
  H      635.891    -459.076     -67.005
  H      636.039    -459.516     -63.360
  H      633.546    -460.733     -63.986
  H      631.984    -455.635     -61.571
  H      634.419    -461.813     -65.978
  H      632.768    -457.100     -61.059
  H      636.940    -462.397     -64.300
  H      636.856    -463.536     -66.488
  H      636.578    -461.981     -67.315
  P      633.115    -463.900     -65.044
  C      630.846    -462.636     -65.042
  O      632.085    -462.862     -64.399
  O      632.915    -465.238     -64.176
  O      632.956    -464.161     -66.508
  H      632.294    -465.843     -64.616
  H      630.455    -463.553     -65.493
  H      630.975    -461.873     -65.821
  H      630.122    -462.271     -64.302
  H      641.394    -460.047     -68.304
  H      639.772    -459.994     -67.659
  H      640.044    -460.549     -69.293

 3  4  5  6  7  8  9  10  11  12  23  26  30  31  33  0
 6-311+G(2d,p)
 ****
 35  36  37  38 0
 6-311+G(2d,p)
 ****
 1  2  13  14  15  16  17  18  19  20  21  22  24  25  27  28  29 0
 3-21G
 ****
 32  34  39  40  41  42  43  44  45  46  47  48  49 0
 3-21G
 ****


