%nproc=1
%NoSave
%Mem=1900MB
#P OB98/GEN NMR

erre ene a

0 1
  C      640.962    -237.242      32.755
  O      640.348    -238.348      32.081
  P      640.987    -239.820      32.099
  C      642.180    -241.080      34.003
  O      641.015    -240.351      33.611
  C      642.174    -241.395      35.505
  O      642.086    -240.185      36.282
  C      641.015    -242.275      35.962
  O      641.266    -243.635      35.642
  C      640.968    -241.958      37.452
  O      641.967    -242.720      38.159
  C      641.319    -240.468      37.471
  N      638.615    -237.331      40.475
  C      639.761    -238.019      40.679
  N      640.417    -238.838      39.833
  C      639.784    -238.894      38.647
  C      638.605    -238.256      38.293
  C      638.009    -237.441      39.269
  N      636.830    -236.757      39.058
  N      638.246    -238.582      36.999
  C      639.205    -239.389      36.577
  N      640.155    -239.608      37.538
  O      642.293    -239.925      31.383
  O      639.884    -240.752      31.400
  H      641.864    -242.529      39.107
  H      640.319    -241.513      30.974
  H      640.211    -237.890      41.662
  H      639.251    -239.832      35.588
  H      641.964    -240.214      38.321
  H      640.001    -242.195      37.904
  H      640.082    -241.944      35.486
  H      643.134    -241.869      35.746
  H      643.063    -240.472      33.762
  H      636.448    -236.223      39.824
  H      636.349    -236.873      38.179
  H      642.218    -242.006      33.427
  P      640.149    -244.499      34.882
  C      639.448    -244.710      32.424
  O      640.521    -244.490      33.323
  O      638.734    -244.156      35.202
  O      640.488    -246.006      35.309
  H      639.668    -246.539      35.311
  H      639.247    -245.783      32.361
  H      639.744    -244.350      31.436
  H      638.555    -244.176      32.738
  H      640.369    -236.363      32.611
  H      641.942    -237.080      32.356
  H      641.034    -237.457      33.801

 3  4  5  6  7  8  9  10  11  12  22  25  29  30  31  32 0
 6-311+G(2d,p)
 ****
 33  36  37 0
 6-311+G(2d,p)
 ****
 1  2  13  14  15  16  17  18  19  20  21  23  24  26 0
 3-21G
 ****
 27  28  34  35  38  39  40  41  42  43  44  45  46  47  48 0
 3-21G
 ****


