%nproc=1
%NoSave
%Mem=1900MB
#P OB98/GEN NMR

erre ene a

0 1
  C      -40.240      73.927      79.084
  O      -40.502      73.387      80.364
  H      -40.525      73.192      78.327
  H      -39.174      74.146      78.978
  H      -40.825      74.838      78.930
  P      -40.125      74.312      81.620
  C      -37.721      73.363      81.839
  O      -38.530      74.499      81.573
  C      -36.338      73.795      82.314
  O      -35.786      74.800      81.434
  C      -36.310      74.384      83.719
  O      -36.269      73.363      84.702
  C      -35.029      75.206      83.671
  O      -33.865      74.381      83.877
  C      -35.059      75.763      82.241
  N      -34.194      80.735      82.348
  C      -33.315      79.676      82.435
  N      -32.015      79.990      82.634
  N      -33.674      78.423      82.348
  C      -35.008      78.262      82.182
  C      -35.979      79.230      82.065
  C      -35.561      80.614      82.133
  O      -36.281      81.598      81.997
  N      -37.217      78.672      81.889
  C      -37.003      77.371      81.938
  N      -35.679      77.073      82.133
  O      -40.342      73.342      82.877
  O      -40.918      75.567      81.752
  H      -33.804      74.141      84.817
  H      -40.615      73.875      83.647
  H      -33.853      81.678      82.405
  H      -37.766      76.612      81.841
  H      -34.054      75.853      81.813
  H      -35.011      75.970      84.450
  H      -31.739      80.877      83.033
  H      -37.165      75.052      83.878
  H      -31.367      79.218      82.722
  H      -35.681      72.917      82.254
  H      -37.619      72.776      80.921
  H      -38.206      72.747      82.604
  P      -37.121      73.586      86.044
  C      -35.320      75.015      87.261
  O      -36.615      74.971      86.677
  O      -36.529      72.487      87.045
  O      -38.597      73.455      85.874
  H      -37.145      72.346      87.789
  H      -35.131      75.999      87.636
  H      -34.587      74.768      86.522
  H      -35.267      74.311      88.065

 6  7  8  9  10  11  12  13  14  15  26  29  33  34 0
 6-311+G(2d,p)
 ****
 36  38  39  40  41 0
 6-311+G(2d,p)
 ****
 1  2  3  4  5  16  17  18  19  20  21  22  23  24  25 0
 3-21G
 ****
 27  28  30  31  32  35  37  42  43  44  45  46  47 0
 3-21G
 ****
 48  49 0
 3-21G
 ****


