%nproc=1
%NoSave
%Mem=1900MB
#P OB98/GEN NMR

erre ene a

0 1
  C      169.212     105.426    -106.096
  O      168.978     104.821    -107.369
  P      169.881     103.549    -107.739
  C      169.512     100.980    -107.631
  O      168.928     102.263    -107.817
  C      168.573      99.894    -108.155
  O      167.310      99.893    -107.457
  C      168.215     100.060    -109.628
  O      169.296      99.678    -110.460
  C      166.987      99.165    -109.729
  O      167.379      97.785    -109.829
  C      166.299      99.410    -108.375
  N      161.234     100.028    -108.016
  C      162.020      98.937    -107.893
  N      163.363      98.854    -108.007
  C      163.893     100.062    -108.260
  C      163.218     101.264    -108.411
  C      161.821     101.221    -108.281
  N      161.019     102.328    -108.423
  N      164.104     102.292    -108.670
  C      165.289     101.714    -108.701
  N      165.214     100.371    -108.448
  O      170.742     103.309    -106.413
  O      170.754     103.762    -108.934
  H      166.582      97.274    -110.078
  H      171.671     103.562    -106.567
  H      161.503      98.006    -107.679
  H      166.223     102.226    -108.904
  H      165.885      98.488    -107.946
  H      166.361      99.391    -110.597
  H      167.938     101.103    -109.834
  H      169.057      98.921    -107.999
  H      169.721     100.807    -106.571
  H      160.018     102.197    -108.394
  H      161.435     103.204    -108.706
  H      170.477     100.953    -108.149
  P      169.870     100.767    -111.491
  C      171.631     102.629    -111.285
  O      170.981     101.552    -110.629
  O      168.667     101.817    -111.552
  O      170.331     100.220    -112.796
  H      168.323     102.026    -110.665
  H      172.327     103.092    -110.579
  H      170.899     103.375    -111.605
  H      172.189     102.258    -112.145
  H      168.551     106.258    -105.970
  H      170.226     105.764    -106.043
  H      169.034     104.709    -105.322

 3  4  5  6  7  8  9  10  11  12  22  25  29  30  31  32 0
 6-311+G(2d,p)
 ****
 33  36  37 0
 6-311+G(2d,p)
 ****
 1  2  13  14  15  16  17  18  19  20  21  23  24  26 0
 3-21G
 ****
 27  28  34  35  38  39  40  41  42  43  44  45  46  47  48 0
 3-21G
 ****


