%nproc=1
%NoSave
%Mem=1900MB
#P OB98/GEN NMR

erre ene a

0 1
  C     -139.139      62.072     822.760
  O     -139.403      62.464     824.095
  P     -140.096      63.867     824.445
  C     -142.471      63.343     825.408
  O     -141.092      63.624     825.693
  C     -143.151      62.526     826.515
  O     -142.545      61.218     826.611
  C     -142.928      63.204     827.878
  O     -143.787      64.252     828.292
  C     -142.820      62.041     828.877
  O     -144.034      61.794     829.558
  C     -142.436      60.859     827.989
  N     -139.518      58.008     831.024
  C     -140.901      58.054     830.929
  N     -141.574      57.392     831.887
  N     -141.547      58.696     829.997
  C     -140.726      59.392     829.159
  C     -139.344      59.417     829.131
  C     -138.656      58.653     830.155
  O     -137.425      58.664     830.320
  N     -138.862      60.273     828.191
  C     -139.945      60.817     827.661
  N     -141.098      60.333     828.226
  O     -140.571      64.696     823.303
  O     -138.873      64.657     825.142
  H     -144.409      62.641     829.855
  H     -138.959      65.602     824.921
  H     -139.097      57.554     831.804
  H     -139.947      61.573     826.883
  H     -143.132      60.025     828.142
  H     -142.082      62.279     829.644
  H     -141.113      57.008     832.718
  H     -141.931      63.656     827.857
  H     -142.586      57.543     831.949
  H     -144.202      62.336     826.279
  H     -142.490      62.802     824.450
  H     -143.005      64.278     825.270
  P     -143.557      65.226     829.547
  C     -143.431      67.572     828.501
  O     -144.234      66.636     829.221
  O     -141.978      65.564     829.497
  O     -143.920      64.638     830.876
  H     -141.668      65.852     830.375
  H     -143.856      68.561     828.605
  H     -143.408      67.289     827.446
  H     -142.408      67.584     828.890
  H     -138.676      61.107     822.756
  H     -138.484      62.784     822.302
  H     -140.057      62.029     822.213

 3  4  5  6  7  8  9  10  11  12  23  26  30  31 0
 6-311+G(2d,p)
 ****
 33  35  36  37  38 0
 6-311+G(2d,p)
 ****
 1  2  13  14  15  16  17  18  19  20  21  22  24  25 0
 3-21G
 ****
 27  28  29  32  34  39  40  41  42  43  44  45  46  47  48  49 0
 3-21G
 ****


