%nproc=1
%NoSave
%Mem=1900MB
#P OB98/GEN NMR

erre ene a

0 1
  C      357.930    -585.079     -48.591
  O      358.835    -584.127     -49.128
  H      358.475    -585.710     -47.887
  H      357.531    -585.705     -49.395
  H      357.117    -584.572     -48.066
  P      358.202    -582.976     -50.059
  C      358.119    -584.375     -52.291
  O      357.410    -583.750     -51.223
  C      357.174    -584.691     -53.446
  O      356.712    -583.444     -54.034
  C      357.814    -585.519     -54.564
  O      356.835    -586.434     -55.073
  C      358.162    -584.488     -55.627
  O      358.268    -585.070     -56.936
  C      357.022    -583.469     -55.444
  N      357.393    -582.140     -55.929
  C      357.132    -581.873     -57.287
  O      356.655    -582.739     -58.013
  N      357.481    -580.642     -57.793
  C      358.084    -579.779     -57.041
  N      358.419    -578.586     -57.605
  C      358.421    -580.032     -55.616
  C      358.032    -581.214     -55.131
  O      359.502    -582.402     -50.798
  O      357.400    -581.953     -49.312
  H      358.383    -584.332     -57.575
  H      360.124    -583.095     -51.076
  H      358.931    -579.285     -55.033
  H      358.235    -581.475     -54.094
  H      356.129    -583.801     -55.977
  H      359.126    -584.020     -55.389
  H      358.688    -586.072     -54.241
  H      356.277    -585.188     -53.045
  H      358.185    -578.453     -58.590
  H      358.593    -585.300     -51.941
  H      358.942    -577.865     -57.126
  H      358.902    -583.690     -52.616
  P      356.787    -587.928     -54.504
  C      358.504    -589.253     -55.882
  O      358.231    -588.606     -54.649
  O      355.646    -588.760     -54.982
  O      356.671    -587.690     -52.918
  H      356.064    -588.371     -52.544
  H      359.492    -589.664     -55.858
  H      358.432    -588.544     -56.680
  H      357.795    -590.039     -56.037

 6  7  8  9  10  11  12  13  14  15  16  26  30  31  32  33  35 0
 6-311+G(2d,p)
 ****
 37  38 0
 6-311+G(2d,p)
 ****
 1  2  3  4  5  17  18  19  20  21  22  23  24  25 0
 3-21G
 ****
 27  28  29  34  36  39  40  41  42  43  44  45  46 0
 3-21G
 ****


