%nproc=1
%NoSave
%Mem=1900MB
#P OB98/GEN NMR

erre ene a

0 1
  C     -152.834    -297.509    -158.092
  O     -152.447    -296.178    -158.444
  P     -151.335    -296.032    -159.599
  C     -152.476    -294.321    -161.194
  O     -152.106    -295.673    -160.960
  C     -153.935    -294.229    -161.636
  O     -154.818    -294.728    -160.615
  C     -154.414    -292.813    -161.918
  O     -154.002    -292.364    -163.199
  C     -155.926    -292.998    -161.873
  O     -156.396    -293.496    -163.138
  C     -156.095    -294.065    -160.778
  N     -159.917    -292.108    -158.085
  C     -159.895    -292.565    -159.387
  N     -161.067    -292.518    -160.059
  N     -158.825    -293.025    -159.978
  C     -157.734    -293.042    -159.176
  C     -157.628    -292.617    -157.871
  C     -158.814    -292.078    -157.239
  O     -158.880    -291.632    -156.099
  N     -156.361    -292.798    -157.385
  C     -155.705    -293.359    -158.382
  N     -156.492    -293.514    -159.498
  O     -150.863    -297.544    -159.832
  O     -150.199    -295.138    -159.237
  H     -155.967    -294.363    -163.282
  H     -149.947    -297.559    -160.170
  H     -160.767    -291.757    -157.682
  H     -154.670    -293.672    -158.348
  H     -156.825    -294.829    -161.065
  H     -156.460    -292.064    -161.681
  H     -161.943    -292.243    -159.644
  H     -154.100    -292.126    -161.122
  H     -161.078    -292.882    -161.005
  H     -154.057    -294.850    -162.535
  H     -151.835    -293.889    -161.966
  H     -152.307    -293.744    -160.280
  P     -152.915    -291.185    -163.248
  C     -151.531    -292.240    -165.173
  O     -151.577    -291.860    -163.812
  O     -152.596    -290.920    -161.703
  O     -153.373    -289.948    -163.945
  H     -152.325    -289.994    -161.568
  H     -151.969    -291.470    -165.814
  H     -152.070    -293.183    -165.309
  H     -150.488    -292.385    -165.464
  H     -153.573    -297.473    -157.319
  H     -151.979    -298.049    -157.743
  H     -153.240    -298.001    -158.951

 3  4  5  6  7  8  9  10  11  12  23  26  30  31  33  0
 6-311+G(2d,p)
 ****
 35  36  37  38 0
 6-311+G(2d,p)
 ****
 1  2  13  14  15  16  17  18  19  20  21  22  24  25  27  28  29 0
 3-21G
 ****
 32  34  39  40  41  42  43  44  45  46  47  48  49 0
 3-21G
 ****


