%nproc=1
%NoSave
%Mem=1900MB
#P OB98/GEN NMR

erre ene a

0 1
  C      230.524     -45.725    -381.101
  O      231.464     -44.835    -380.495
  P      232.300     -43.896    -381.493
  C      232.716     -42.062    -379.705
  O      233.289     -42.993    -380.610
  C      233.725     -41.662    -378.628
  O      234.060     -42.757    -377.755
  C      235.046     -41.159    -379.195
  O      234.914     -39.814    -379.615
  C      235.978     -41.328    -378.003
  O      235.891     -40.200    -377.108
  C      235.435     -42.595    -377.323
  N      239.276     -45.554    -375.846
  C      238.899     -44.305    -375.395
  N      239.632     -43.779    -374.391
  N      237.888     -43.631    -375.885
  C      237.245     -44.280    -376.882
  C      237.506     -45.529    -377.393
  C      238.627     -46.263    -376.846
  O      238.988     -47.380    -377.194
  N      236.596     -45.878    -378.359
  C      235.865     -44.786    -378.515
  N      236.175     -43.814    -377.598
  O      231.204     -42.861    -382.030
  O      232.943     -44.644    -382.611
  H      236.533     -40.317    -376.384
  H      231.011     -43.040    -382.971
  H      240.068     -46.024    -375.438
  H      235.088     -44.664    -379.254
  H      235.419     -42.488    -376.231
  H      237.025     -41.391    -378.313
  H      240.420     -44.241    -373.966
  H      235.369     -41.805    -380.020
  H      239.365     -42.866    -374.042
  H      233.260     -40.875    -378.020
  H      231.828     -42.494    -379.237
  H      232.376     -41.186    -380.268
  P      235.127     -39.489    -381.172
  C      233.136     -37.829    -381.039
  O      234.464     -38.062    -381.458
  O      234.140     -40.524    -381.894
  O      236.528     -39.658    -381.653
  H      234.596     -40.931    -382.656
  H      233.017     -36.767    -380.818
  H      232.890     -38.407    -380.143
  H      232.449     -38.102    -381.844
  H      230.031     -46.295    -380.341
  H      231.038     -46.387    -381.767
  H      229.799     -45.160    -381.649

 3  4  5  6  7  8  9  10  11  12  23  26  30  31 0
 6-311+G(2d,p)
 ****
 33  35  36  37  38 0
 6-311+G(2d,p)
 ****
 1  2  13  14  15  16  17  18  19  20  21  22  24  25 0
 3-21G
 ****
 27  28  29  32  34  39  40  41  42  43  44  45  46  47  48  49 0
 3-21G
 ****


