%nproc=1
%NoSave
%Mem=1900MB
#P OB98/GEN NMR

erre ene a

0 1
  C     -313.844     210.187      64.268
  O     -314.677     211.351      64.124
  P     -314.199     212.538      63.149
  C     -313.442     213.939      65.216
  O     -313.155     213.494      63.900
  C     -313.034     215.408      65.411
  O     -311.651     215.608      64.996
  C     -313.893     216.412      64.622
  O     -313.966     217.611      65.406
  C     -313.050     216.655      63.378
  O     -313.387     217.855      62.701
  C     -311.649     216.648      63.998
  N     -310.565     216.441      63.033
  C     -309.758     217.527      62.712
  O     -309.922     218.664      63.141
  N     -308.731     217.269      61.838
  C     -308.471     216.073      61.230
  O     -307.558     215.917      60.427
  C     -309.378     214.972      61.580
  C     -310.364     215.202      62.453
  O     -315.513     213.458      63.081
  O     -313.799     212.113      61.774
  H     -312.761     217.951      61.958
  H     -315.690     213.713      62.153
  H     -308.128     218.039      61.607
  H     -309.200     214.002      61.125
  H     -311.040     214.398      62.734
  H     -311.481     217.595      64.528
  H     -313.192     215.822      62.683
  H     -314.897     216.041      64.401
  H     -313.078     215.631      66.482
  H     -312.888     213.320      65.933
  H     -314.510     213.814      65.410
  P     -315.354     217.961      66.136
  C     -316.024     220.204      64.968
  O     -316.231     218.818      65.105
  O     -314.853     219.065      67.191
  O     -316.028     216.792      66.782
  H     -314.253     219.716      66.795
  H     -314.959     220.451      64.978
  H     -316.531     220.734      65.775
  H     -316.448     220.528      64.011
  H     -314.305     209.500      64.947
  H     -312.887     210.478      64.649
  H     -313.720     209.717      63.315

 3  4  5  6  7  8  9  10  11  12  13  23  28  29  30  31  32 0
 6-311+G(2d,p)
 ****
 33  34 0
 6-311+G(2d,p)
 ****
 1  2  14  15  16  17  18  19  20  21  22  24  25  26 0
 3-21G
 ****
 27  35  36  37  38  39  40  41  42  43  44  45 0
 3-21G
 ****


