%nproc=1
%NoSave
%Mem=1900MB
#P OB98/GEN NMR

erre ene a

0 1
  C       31.908      54.380     137.838
  O       31.625      53.395     136.865
  H       32.989      54.536     137.877
  H       31.566      54.046     138.822
  H       31.423      55.324     137.577
  P       30.078      53.046     136.622
  C       30.157      50.908     138.098
  O       29.602      52.202     137.900
  C       29.102      49.979     138.694
  O       28.692      50.483     139.985
  C       27.824      49.874     137.870
  O       27.974      48.997     136.768
  C       26.838      49.372     138.917
  O       26.919      47.950     139.077
  C       27.324      50.071     140.193
  N       22.604      51.564     141.404
  C       23.136      50.343     141.184
  N       24.414      50.027     140.883
  C       25.172      51.135     140.828
  C       24.769      52.444     141.022
  C       23.414      52.646     141.327
  N       22.865      53.891     141.516
  N       25.829      53.310     140.835
  C       26.855      52.536     140.544
  N       26.505      51.216     140.533
  O       30.139      51.957     135.448
  O       29.212      54.207     136.264
  H       26.142      47.685     139.606
  H       30.018      52.398     134.587
  H       22.443      49.508     141.254
  H       27.858      52.883     140.326
  H       27.317      49.399     141.060
  H       25.811      49.610     138.640
  H       27.507      50.869     137.534
  H       29.552      48.990     138.842
  H       31.004      50.979     138.788
  H       30.511      50.523     137.136
  H       21.879      53.962     141.709
  H       23.437      54.710     141.356
  P       27.047      49.221     135.482
  C       25.343      47.279     135.769
  O       25.581      48.675     135.837
  O       27.608      48.149     134.435
  O       27.072      50.606     134.929
  H       28.198      48.580     133.789
  H       24.326      47.077     136.032
  H       25.995      46.772     136.450
  H       25.529      46.934     134.773

 6  7  8  9  10  11  12  13  14  15  25  28  32  33  34  35 0
 6-311+G(2d,p)
 ****
 36  37  40 0
 6-311+G(2d,p)
 ****
 1  2  3  4  5  16  17  18  19  20  21  22  23  24 0
 3-21G
 ****
 26  27  29  30  31  38  39 41  42  43  44  45  46  47  48 0
 3-21G
 ****


