%nproc=1
%NoSave
%Mem=1900MB
#P OB98/GEN NMR

erre ene a

0 1
  C     -432.662    -202.229      34.145
  O     -431.737    -201.663      33.234
  P     -432.138    -200.302      32.488
  C     -429.848    -199.048      32.166
  O     -430.861    -199.866      31.611
  C     -428.474    -199.493      31.671
  O     -428.135    -200.770      32.297
  C     -428.375    -199.698      30.153
  O     -427.056    -199.296      29.754
  C     -428.558    -201.193      29.995
  O     -428.026    -201.685      28.777
  C     -427.819    -201.702      31.245
  N     -428.202    -203.061      31.633
  C     -427.541    -204.118      31.020
  O     -426.676    -203.982      30.161
  N     -427.936    -205.373      31.418
  C     -428.944    -205.664      32.288
  O     -429.271    -206.806      32.594
  C     -429.638    -204.502      32.871
  C     -429.232    -203.278      32.529
  O     -432.145    -199.266      33.703
  O     -433.417    -200.386      31.723
  H     -431.461    -199.455      34.365
  H     -427.070    -201.485      28.760
  H     -427.445    -206.159      31.016
  H     -430.456    -204.688      33.558
  H     -429.731    -202.405      32.944
  H     -426.736    -201.658      31.087
  H     -429.623    -201.445      30.033
  H     -429.122    -199.110      29.606
  H     -427.729    -198.763      32.011
  H     -429.880    -199.124      33.262
  H     -430.039    -198.006      31.900
  P     -426.911    -198.320      28.482
  C     -424.576    -197.171      28.759
  O     -425.345    -198.186      28.166
  O     -427.260    -196.910      29.169
  O     -427.806    -198.641      27.333
  H     -426.774    -196.762      29.996
  H     -423.517    -197.443      28.695
  H     -424.832    -197.036      29.818
  H     -424.725    -196.229      28.230
  H     -432.252    -203.127      34.557
  H     -433.574    -202.455      33.633
  H     -432.859    -201.532      34.933

 3  4  5  6  7  8  9  10  11  12  13  24  28  29  30  31  32 0
 6-311+G(2d,p)
 ****
 33  34 0
 6-311+G(2d,p)
 ****
 1  2  14  15  16  17  18  19  20  21  22  23  25  26  27 0
 3-21G
 ****
 35  36  37  38  39  40  41  42  43  44  45 0
 3-21G
 ****


