%nproc=1
%NoSave
%Mem=1900MB
#P OB98/GEN NMR

erre ene a

0 1
  C     -431.467    -670.239    1115.385
  O     -431.086    -668.877    1115.236
  H     -431.356    -670.513    1116.434
  H     -430.810    -670.880    1114.784
  H     -432.504    -670.368    1115.086
  P     -431.141    -668.284    1113.739
  C     -433.225    -666.800    1114.143
  O     -431.820    -666.840    1113.912
  C     -433.654    -665.406    1114.586
  O     -433.331    -665.189    1115.968
  C     -432.978    -664.273    1113.801
  O     -433.646    -664.030    1112.582
  C     -433.163    -663.099    1114.776
  O     -434.495    -662.563    1114.634
  C     -433.012    -663.782    1116.158
  N     -430.043    -661.150    1119.418
  C     -431.248    -660.896    1118.913
  N     -431.961    -661.621    1117.998
  C     -431.286    -662.709    1117.634
  C     -430.024    -663.102    1118.062
  C     -429.395    -662.279    1119.010
  N     -428.123    -662.569    1119.522
  N     -429.645    -664.287    1117.460
  C     -430.675    -664.620    1116.719
  N     -431.697    -663.695    1116.763
  O     -431.723    -669.180    1112.701
  O     -429.590    -667.917    1113.517
  H     -434.493    -662.050    1113.800
  H     -429.212    -667.530    1114.322
  H     -431.731    -659.996    1119.293
  H     -430.759    -665.559    1116.152
  H     -433.716    -663.388    1116.889
  H     -432.463    -662.283    1114.585
  H     -431.911    -664.461    1113.677
  H     -434.749    -665.346    1114.495
  H     -433.503    -667.526    1114.917
  H     -427.692    -661.827    1120.029
  H     -427.614    -663.316    1119.120
  H     -433.734    -667.079    1113.215
  P     -432.901    -663.341    1111.340
  C     -432.185    -665.424    1110.004
  O     -433.121    -664.365    1110.118
  O     -431.493    -662.940    1111.613
  O     -433.842    -662.104    1110.955
  H     -433.349    -661.490    1110.384
  H     -432.435    -666.032    1109.160
  H     -432.210    -666.019    1110.893
  H     -431.203    -665.020    1109.873

 6  7  8  9  10  11  12  13  14  15  25  28  32  33  34  35 0
 6-311+G(2d,p)
 ****
 36  39  40 0
 6-311+G(2d,p)
 ****
 1  2  3  4  5  16  17  18  19  20  21  22  23  24 0
 3-21G
 ****
 26  27  29  30  31  37  38  41  42  43  44  45  46  47 0
 3-21G
 ****
 48 0
 3-21G
 ****


