%nproc=1
%NoSave
%Mem=1900MB
#P OB98/GEN NMR

erre ene a

0 1
  C     -112.139     -34.021       5.866
  O     -111.238     -33.562       4.882
  H     -111.693     -34.877       6.382
  H     -113.074     -34.341       5.400
  H     -112.338     -33.233       6.597
  P     -111.706     -32.305       4.002
  C     -110.298     -31.009       5.753
  O     -110.730     -31.090       4.402
  C     -109.275     -29.884       5.919
  O     -108.014     -30.303       5.326
  C     -109.688     -28.567       5.247
  O     -109.266     -27.477       6.073
  C     -108.869     -28.563       3.968
  O     -108.683     -27.249       3.453
  C     -107.591     -29.241       4.449
  N     -103.289     -28.588       1.923
  C     -103.786     -27.933       3.033
  N     -103.023     -26.946       3.551
  N     -104.935     -28.217       3.586
  C     -105.582     -29.242       2.981
  C     -105.204     -29.962       1.874
  C     -103.940     -29.623       1.256
  O     -103.458     -30.151       0.259
  N     -106.154     -30.898       1.546
  C     -107.101     -30.743       2.454
  N     -106.796     -29.752       3.347
  O     -113.103     -31.886       4.662
  O     -111.828     -32.555       2.536
  H     -108.015     -26.799       4.012
  H     -113.697     -31.490       3.997
  H     -102.404     -28.321       1.530
  H     -108.018     -31.314       2.507
  H     -106.945     -28.560       5.019
  H     -109.367     -29.166       3.200
  H     -102.113     -26.693       3.198
  H     -110.761     -28.490       5.057
  H     -103.361     -26.460       4.374
  H     -109.086     -29.738       6.989
  H     -109.840     -31.962       6.039
  H     -111.163     -30.820       6.396
  P     -110.384     -26.433       6.553
  C     -111.678     -27.675       8.429
  O     -110.703     -26.696       8.104
  O     -111.704     -26.954       5.809
  O     -110.084     -25.016       6.191
  H     -111.941     -26.340       5.091
  H     -111.780     -27.737       9.492
  H     -111.371     -28.625       8.044
  H     -112.617     -27.401       7.996

 6  7  8  9  10  11  12  13  14  15  26  29  33  34 0
 6-311+G(2d,p)
 ****
 36  38  39  40  41 0
 6-311+G(2d,p)
 ****
 1  2  3  4  5  16  17  18  19  20  21  22  23  24  25 0
 3-21G
 ****
 27  28  30  31  32  35  37  42  43  44  45  46  47 0
 3-21G
 ****
 48  49 0
 3-21G
 ****


