%nproc=1
%NoSave
%Mem=1900MB
#P OB98/GEN NMR

erre ene a

0 1
  C      -64.943    -110.293    -161.863
  O      -65.562    -109.893    -160.655
  H      -65.603    -110.993    -162.380
  H      -63.994    -110.790    -161.650
  H      -64.773    -109.425    -162.506
  P      -64.763    -108.826    -159.763
  C      -65.993    -106.787    -160.828
  O      -65.719    -107.541    -159.655
  C      -67.161    -105.825    -160.578
  O      -68.327    -106.604    -160.174
  C      -66.890    -104.808    -159.457
  O      -67.625    -103.606    -159.745
  C      -67.514    -105.498    -158.255
  O      -67.713    -104.581    -157.207
  C      -68.767    -106.070    -158.909
  N      -72.130    -106.943    -155.176
  C      -71.768    -105.812    -155.818
  N      -70.868    -105.663    -156.811
  C      -70.338    -106.851    -157.151
  C      -70.604    -108.086    -156.586
  C      -71.546    -108.109    -155.545
  N      -71.901    -109.256    -154.872
  N      -69.837    -109.070    -157.187
  C      -69.128    -108.437    -158.100
  N      -69.399    -107.097    -158.113
  O      -63.586    -108.345    -160.735
  O      -64.243    -109.333    -158.461
  H      -68.312    -103.858    -157.479
  H      -62.788    -108.885    -160.584
  H      -72.267    -104.904    -155.489
  H      -68.405    -108.891    -158.764
  H      -69.521    -105.299    -159.112
  H      -66.865    -106.294    -157.879
  H      -65.832    -104.570    -159.332
  H      -67.423    -105.325    -161.517
  H      -66.246    -107.480    -161.636
  H      -65.104    -106.215    -161.107
  H      -72.565    -109.180    -154.117
  H      -71.451    -110.127    -155.110
  P      -66.893    -102.185    -159.580
  C      -65.753    -101.867    -161.906
  O      -66.764    -101.450    -161.001
  O      -65.379    -102.624    -159.287
  O      -67.403    -101.326    -158.467
  H      -65.025    -102.105    -158.540
  H      -65.807    -101.277    -162.797
  H      -65.897    -102.898    -162.151
  H      -64.793    -101.739    -161.452

 6  7  8  9  10  11  12  13  14  15  25  28  32  33  34  35 0
 6-311+G(2d,p)
 ****
 36  37  40 0
 6-311+G(2d,p)
 ****
 1  2  3  4  5  16  17  18  19  20  21  22  23  24 0
 3-21G
 ****
 26  27  29  30  31  38  39 41  42  43  44  45  46  47  48 0
 3-21G
 ****


