%nproc=1
%NoSave
%Mem=1900MB
#P OB98/GEN NMR

erre ene a

0 1
  C     -132.793    -377.391    -188.383
  O     -133.799    -378.349    -188.645
  H     -131.847    -377.912    -188.211
  H     -133.047    -376.818    -187.486
  H     -132.676    -376.716    -189.236
  P     -135.231    -377.793    -189.092
  C     -136.073    -380.019    -190.209
  O     -136.227    -379.051    -189.175
  C     -137.272    -380.966    -190.220
  O     -137.204    -381.909    -189.130
  C     -138.608    -380.271    -190.016
  O     -139.003    -379.507    -191.133
  C     -139.502    -381.472    -189.738
  O     -139.860    -382.142    -190.952
  C     -138.564    -382.354    -188.878
  N     -138.896    -382.303    -187.461
  C     -140.191    -382.715    -187.120
  O     -140.969    -383.097    -187.992
  N     -140.578    -382.652    -185.803
  C     -139.740    -382.243    -184.902
  N     -140.185    -382.193    -183.619
  C     -138.356    -381.827    -185.214
  C     -138.006    -381.876    -186.498
  O     -134.999    -377.425    -190.634
  O     -135.767    -376.672    -188.263
  H     -140.193    -383.024    -190.691
  H     -134.635    -378.160    -191.157
  H     -137.689    -381.499    -184.428
  H     -137.011    -381.587    -186.812
  H     -138.620    -383.403    -189.201
  H     -140.435    -381.183    -189.247
  H     -138.578    -379.653    -189.108
  H     -137.250    -381.527    -191.164
  H     -141.147    -382.466    -183.446
  H     -135.140    -380.577    -190.083
  H     -139.635    -381.861    -182.841
  H     -136.008    -379.477    -191.158
  P     -139.629    -378.043    -190.941
  C     -139.085    -377.331    -193.355
  O     -140.110    -377.564    -192.398
  O     -138.753    -377.067    -190.228
  O     -141.019    -378.333    -190.201
  H     -141.634    -378.900    -190.698
  H     -139.524    -377.019    -194.279
  H     -138.530    -378.233    -193.510
  H     -138.429    -376.566    -192.996

 6  7  8  9  10  11  12  13  14  15  16  26  30  31  32  33  35 0
 6-311+G(2d,p)
 ****
 37  38 0
 6-311+G(2d,p)
 ****
 1  2  3  4  5  17  18  19  20  21  22  23  24  25 0
 3-21G
 ****
 27  28  29  34  36  39  40  41  42  43  44  45  46 0
 3-21G
 ****


