%nproc=1
%NoSave
%Mem=1900MB
#P OB98/GEN NMR

erre ene a

0 1
  C      -98.770    -190.583    -313.048
  O     -100.042    -191.199    -312.982
  H      -98.019    -191.354    -313.229
  H      -98.537    -190.084    -312.102
  H      -98.740    -189.861    -313.870
  P     -101.323    -190.292    -312.657
  C     -101.750    -189.680    -315.130
  O     -102.256    -190.321    -313.964
  C     -102.404    -190.271    -316.387
  O     -102.352    -191.716    -316.276
  C     -103.876    -189.846    -316.535
  O     -104.167    -189.280    -317.816
  C     -104.640    -191.097    -316.117
  O     -105.932    -191.208    -316.676
  C     -103.681    -192.236    -316.484
  N     -103.887    -193.457    -315.710
  C     -104.720    -194.433    -316.251
  O     -105.289    -194.345    -317.339
  N     -104.894    -195.557    -315.484
  C     -104.336    -195.792    -314.258
  O     -104.526    -196.821    -313.624
  C     -103.489    -194.716    -313.724
  C     -103.304    -193.615    -314.459
  O     -101.031    -188.927    -312.129
  O     -102.156    -191.162    -311.601
  H     -106.490    -191.687    -316.027
  H     -102.053    -190.779    -310.708
  H     -105.483    -196.278    -315.874
  H     -103.042    -194.864    -312.751
  H     -102.681    -192.800    -314.099
  H     -103.784    -192.494    -317.544
  H     -104.766    -191.078    -315.025
  H     -104.117    -189.034    -315.841
  H     -101.812    -189.981    -317.262
  H     -100.664    -189.839    -315.156
  H     -101.948    -188.604    -315.079
  P     -104.251    -187.718    -318.130
  C     -101.680    -187.188    -318.292
  O     -102.942    -187.289    -318.940
  O     -104.653    -186.841    -316.988
  O     -105.411    -187.619    -319.248
  H     -105.858    -186.755    -319.107
  H     -100.937    -186.890    -319.002
  H     -101.415    -188.138    -317.877
  H     -101.738    -186.460    -317.510

 6  7  8  9  10  11  12  13  14  15  16  26  31  32  33  34  35 0
 6-311+G(2d,p)
 ****
 36  37 0
 6-311+G(2d,p)
 ****
 1  2  3  4  5  17  18  19  20  21  22  23  24  25 0
 3-21G
 ****
 27  28  29  30  38  39  40  41  42  43  44  45 0
 3-21G
 ****


