%nproc=1
%NoSave
%Mem=1900MB
#P OB98/GEN NMR

erre ene a

0 1
  C     -108.347      24.613      32.828
  O     -109.251      24.604      33.917
  H     -108.859      24.225      31.942
  H     -107.482      23.976      33.034
  H     -108.012      25.633      32.622
  P     -108.691      24.984      35.370
  C     -106.904      23.985      36.953
  O     -107.591      23.871      35.711
  C     -106.748      22.610      37.594
  O     -107.998      22.184      38.173
  C     -106.360      21.525      36.599
  O     -104.992      21.620      36.258
  C     -106.759      20.279      37.365
  O     -105.768      19.925      38.339
  C     -108.065      20.743      38.051
  N     -109.261      20.333      37.323
  C     -109.889      19.170      37.779
  O     -109.438      18.555      38.744
  N     -111.003      18.724      37.111
  C     -111.459      19.386      36.094
  N     -112.565      18.889      35.477
  C     -110.835      20.623      35.590
  C     -109.749      21.035      36.243
  O     -109.706      25.199      36.451
  O     -107.811      26.294      35.104
  H     -106.031      19.046      38.679
  H     -108.358      27.097      35.190
  H     -111.253      21.145      34.743
  H     -109.230      21.937      35.938
  H     -108.129      20.343      39.071
  H     -106.891      19.426      36.701
  H     -106.988      21.589      35.705
  H     -106.011      22.687      38.404
  H     -112.954      18.030      35.851
  H     -107.504      24.637      37.596
  H     -113.057      19.363      34.736
  H     -105.921      24.449      36.810
  P     -104.501      21.303      34.764
  C     -103.944      19.159      33.444
  O     -104.297      19.711      34.709
  O     -103.343      22.115      34.289
  O     -105.828      21.522      33.893
  H     -106.040      22.482      33.792
  H     -103.837      18.098      33.535
  H     -103.019      19.584      33.115
  H     -104.711      19.380      32.732

 6  7  8  9  10  11  12  13  14  15  16  26  30  31  32  33  35 0
 6-311+G(2d,p)
 ****
 37  38 0
 6-311+G(2d,p)
 ****
 1  2  3  4  5  17  18  19  20  21  22  23  24  25 0
 3-21G
 ****
 27  28  29  34  36  39  40  41  42  43  44  45  46 0
 3-21G
 ****


