%nproc=1
%NoSave
%Mem=1900MB
#P OB98/GEN NMR

erre ene a

0 1
  C      161.014      24.606    -899.390
  O      160.312      24.679    -898.170
  H      160.650      23.737    -899.950
  H      162.086      24.480    -899.210
  H      160.847      25.503    -900.000
  P      160.544      25.953    -897.220
  C      161.213      24.397    -895.280
  O      161.579      25.508    -896.080
  C      162.188      24.266    -894.100
  O      163.529      24.032    -894.590
  C      162.276      25.520    -893.240
  O      161.148      25.630    -892.380
  C      163.593      25.276    -892.520
  O      163.426      24.381    -891.410
  C      164.442      24.624    -893.630
  N      165.361      25.567    -894.300
  C      166.418      26.026    -893.530
  O      166.600      25.700    -892.350
  N      167.262      26.902    -894.160
  C      167.089      27.437    -895.400
  O      167.829      28.297    -895.880
  C      165.928      26.933    -896.150
  C      165.124      26.037    -895.580
  O      159.295      26.617    -896.720
  O      161.407      26.945    -898.130
  H      164.319      24.101    -891.140
  H      160.841      27.670    -898.450
  H      168.041      27.257    -893.620
  H      165.759      27.329    -897.150
  H      164.268      25.653    -896.110
  H      165.041      23.794    -893.230
  H      164.031      26.199    -892.120
  H      162.375      26.405    -893.870
  H      161.890      23.398    -893.500
  H      161.254      23.483    -895.890
  H      160.190      24.533    -894.910
  P      160.794      27.048    -891.700
  C      161.453      26.242    -889.360
  O      161.689      27.206    -890.390
  O      159.344      27.315    -891.530
  O      161.440      28.120    -892.720
  H      160.738      28.692    -893.080
  H      162.102      26.438    -888.532
  H      161.646      25.260    -889.739
  H      160.435      26.306    -889.038

 6  7  8  9  10  11  12  13  14  15  16  26  31  32  33  34  35 0
 6-311+G(2d,p)
 ****
 36  37 0
 6-311+G(2d,p)
 ****
 1  2  3  4  5  17  18  19  20  21  22  23  24  25 0
 3-21G
 ****
 27  28  29  30  38  39  40  41  42  43  44  45 0
 3-21G
 ****


