%nproc=1
%NoSave
%Mem=1900MB
#P OB98/GEN NMR

erre ene a

0 1
  C      127.898     175.864     260.085
  O      127.512     177.219     260.039
  P      128.618     178.381     260.007
  C      127.398     179.663     258.138
  O      128.591     178.986     258.520
  C      127.398     179.917     256.634
  O      127.431     178.671     255.893
  C      126.151     180.624     256.121
  O      125.938     181.953     256.542
  C      126.264     180.380     254.626
  O      127.162     181.304     254.013
  C      126.854     178.946     254.590
  N      125.850     177.951     254.220
  C      125.728     177.689     252.860
  O      126.405     178.242     251.996
  N      124.763     176.780     252.513
  C      123.902     176.158     253.367
  O      123.031     175.389     252.981
  C      124.068     176.488     254.790
  C      125.020     177.357     255.149
  O      129.971     177.984     260.491
  O      127.940     179.555     260.862
  H      127.373     180.961     253.123
  H      127.094     179.881     260.507
  H      124.649     176.584     251.530
  H      123.406     176.002     255.496
  H      125.160     177.617     256.194
  H      127.677     178.890     253.866
  H      125.297     180.485     254.121
  H      125.275     180.062     256.471
  H      128.309     180.468     256.377
  H      127.351     180.622     258.661
  H      126.528     179.071     258.442
  P      124.690     182.406     257.440
  C      125.746     183.149     259.685
  O      125.053     182.145     258.980
  O      123.338     181.983     256.968
  O      124.794     184.007     257.344
  H      123.897     184.386     257.399
  H      125.948     182.788     260.698
  H      125.140     184.057     259.754
  H      126.700     183.373     259.201
  H      127.025     175.245     260.101
  H      128.476     175.688     260.968
  H      128.485     175.631     259.221

 3  4  5  6  7  8  9  10  11  12  13  23  28  29  30  31  32 0
 6-311+G(2d,p)
 ****
 33  34 0
 6-311+G(2d,p)
 ****
 1  2  14  15  16  17  18  19  20  21  22  24  25  26  27 0
 3-21G
 ****
 35  36  37  38  39  40  41  42  43  44  45 0
 3-21G
 ****


