%nproc=1
%NoSave
%Mem=1900MB
#P OB98/GEN NMR

erre ene a

0 1
  C     1437.238    2266.402    -897.360
  O     1438.650    2266.379    -897.470
  H     1436.785    2265.993    -898.260
  H     1436.958    2265.777    -896.500
  H     1436.901    2267.428    -897.190
  P     1439.301    2267.240    -898.660
  C     1441.513    2266.829    -897.360
  O     1440.888    2266.923    -898.640
  C     1442.861    2266.149    -897.540
  O     1443.613    2266.803    -898.600
  C     1443.765    2266.201    -896.300
  O     1443.431    2265.211    -895.350
  C     1445.129    2265.954    -896.920
  O     1445.292    2264.564    -897.200
  C     1445.036    2266.776    -898.210
  N     1448.974    2269.682    -896.770
  C     1448.799    2268.353    -896.730
  N     1447.721    2267.622    -897.130
  C     1446.773    2268.466    -897.620
  C     1446.803    2269.857    -897.700
  C     1447.999    2270.447    -897.260
  N     1448.206    2271.837    -897.280
  N     1445.625    2270.361    -898.210
  C     1444.900    2269.282    -898.450
  N     1445.534    2268.117    -898.100
  O     1439.234    2268.746    -898.130
  O     1438.664    2267.081    -900.000
  H     1445.383    2264.094    -896.340
  H     1439.287    2269.373    -898.870
  H     1449.613    2267.742    -896.320
  H     1443.897    2269.306    -898.880
  H     1445.577    2266.288    -899.050
  H     1445.970    2266.245    -896.240
  H     1443.734    2267.208    -895.840
  H     1442.719    2265.099    -897.850
  H     1440.876    2266.183    -896.690
  H     1449.017    2272.164    -896.780
  H     1447.417    2272.419    -897.510
  H     1441.631    2267.815    -896.930
  P     1443.154    2265.672    -893.840
  C     1441.645    2263.554    -893.490
  O     1442.737    2264.339    -893.050
  O     1441.744    2266.464    -893.960
  O     1444.241    2266.508    -893.230
  H     1441.670    2267.136    -893.250
  H     1441.525    2262.713    -892.839
  H     1441.831    2263.210    -894.486
  H     1440.753    2264.145    -893.478

 6  7  8  9  10  11  12  13  14  15  25  28  32  33  34  35 0
 6-311+G(2d,p)
 ****
 36  39  40 0
 6-311+G(2d,p)
 ****
 1  2  3  4  5  16  17  18  19  20  21  22  23  24 0
 3-21G
 ****
 26  27  29  30  31  37  38  41  42  43  44  45  46  47 0
 3-21G
 ****
 48 0
 3-21G
 ****


