%nproc=1
%NoSave
%Mem=1900MB
#P OB98/GEN NMR

erre ene a

0 1
  C      725.702     517.445     -11.423
  O      724.481     517.411     -12.162
  P      723.281     518.298     -11.573
  C      722.633     519.403     -13.820
  O      723.127     519.600     -12.507
  C      722.751     520.688     -14.648
  O      721.927     521.747     -14.068
  C      724.185     521.240     -14.740
  O      724.322     521.828     -16.042
  C      724.181     522.311     -13.660
  O      725.260     523.231     -13.771
  C      722.781     522.889     -13.874
  N      723.599     527.207     -11.271
  C      724.240     526.646     -12.329
  N      723.961     525.489     -12.967
  C      722.888     524.892     -12.408
  C      722.135     525.340     -11.332
  C      722.530     526.560     -10.750
  N      721.896     527.119      -9.672
  N      721.130     524.429     -11.040
  C      721.326     523.428     -11.882
  N      722.317     523.703     -12.776
  O      723.883     518.877     -10.202
  O      722.023     517.525     -11.355
  H      725.282     523.810     -12.983
  H      723.566     518.355      -9.444
  H      725.086     527.205     -12.711
  H      720.782     522.499     -11.883
  H      722.727     523.504     -14.783
  H      724.255     521.841     -12.675
  H      724.957     520.475     -14.603
  H      722.369     520.487     -15.660
  H      721.592     519.090     -13.792
  H      722.247     527.999      -9.325
  H      721.101     526.663      -9.248
  H      723.192     518.581     -14.295
  P      724.602     520.866     -17.292
  C      722.275     521.428     -18.225
  O      723.144     520.400     -17.779
  O      725.121     519.535     -16.543
  O      725.544     521.385     -18.332
  H      724.510     519.289     -15.834
  H      721.357     520.968     -18.596
  H      722.750     521.997     -19.032
  H      722.030     522.092     -17.394
  H      726.427     516.822     -11.903
  H      725.528     517.088     -10.429
  H      726.066     518.450     -11.382

 3  4  5  6  7  8  9  10  11  12  22  25  29  30  31  32 0
 6-311+G(2d,p)
 ****
 33  36  37 0
 6-311+G(2d,p)
 ****
 1  2  13  14  15  16  17  18  19  20  21  23  24  26 0
 3-21G
 ****
 27  28  34  35  38  39  40  41  42  43  44  45  46  47  48 0
 3-21G
 ****


