%nproc=1
%NoSave
%Mem=1900MB
#P OB98/GEN NMR

erre ene a

0 1
  C      247.092    -297.694    -413.707
  O      247.767    -298.390    -412.680
  H      246.389    -298.376    -414.195
  H      247.814    -297.335    -414.454
  H      246.535    -296.848    -413.297
  P      248.765    -297.541    -411.756
  C      250.921    -298.040    -413.142
  O      249.974    -297.072    -412.710
  C      252.329    -297.457    -413.082
  O      253.290    -298.540    -413.211
  C      252.620    -296.452    -414.212
  O      253.450    -295.403    -413.711
  C      253.390    -297.281    -415.225
  O      254.214    -296.511    -416.091
  C      254.184    -298.210    -414.297
  N      254.649    -299.419    -414.972
  C      255.936    -299.412    -415.490
  O      256.746    -298.492    -415.353
  N      256.299    -300.533    -416.197
  C      255.506    -301.617    -416.443
  O      255.879    -302.584    -417.108
  C      254.150    -301.559    -415.885
  C      253.780    -300.482    -415.184
  O      249.451    -298.654    -410.826
  O      248.143    -296.441    -410.969
  H      248.935    -298.778    -410.004
  H      254.865    -297.114    -416.503
  H      257.234    -300.548    -416.576
  H      253.493    -302.403    -416.073
  H      252.788    -300.408    -414.766
  H      255.037    -297.676    -413.863
  H      252.699    -297.858    -415.846
  H      251.708    -296.029    -414.648
  H      252.488    -296.994    -412.096
  H      250.685    -298.333    -414.171
  H      250.848    -298.926    -412.494
  P      252.795    -293.940    -413.580
  C      252.512    -293.534    -416.153
  O      251.884    -293.751    -414.893
  O      254.066    -293.006    -413.836
  O      252.098    -293.728    -412.273
  H      254.682    -293.354    -414.498
  H      251.764    -293.430    -416.911
  H      253.142    -294.367    -416.386
  H      253.101    -292.642    -416.109

 6  7  8  9  10  11  12  13  14  15  16  27  31  32  33  34  35 0
 6-311+G(2d,p)
 ****
 36  37 0
 6-311+G(2d,p)
 ****
 1  2  3  4  5  17  18  19  20  21  22  23  24  25 0
 3-21G
 ****
 26  28  29  30  38  39  40  41  42  43  44  45 0
 3-21G
 ****


