%nproc=1
%NoSave
%Mem=1900MB
#P OB98/GEN NMR

erre ene a

0 1
  C     -276.110     446.478     -63.011
  O     -276.071     445.909     -61.706
  P     -275.664     444.365     -61.556
  C     -273.822     443.327     -63.151
  O     -274.162     444.148     -62.054
  C     -272.494     442.609     -62.850
  O     -271.414     443.562     -62.770
  C     -272.511     441.842     -61.530
  O     -273.038     440.534     -61.684
  C     -271.048     441.865     -61.134
  O     -270.308     440.883     -61.889
  C     -270.644     443.295     -61.565
  N     -270.874     444.400     -60.603
  C     -270.042     445.520     -60.624
  O     -269.095     445.669     -61.393
  N     -270.340     446.504     -59.712
  C     -271.451     446.562     -58.923
  O     -271.697     447.497     -58.171
  C     -272.371     445.428     -59.051
  C     -272.046     444.415     -59.858
  O     -276.544     443.628     -62.667
  O     -275.896     443.796     -60.190
  H     -270.725     440.021     -61.724
  H     -277.183     443.022     -62.248
  H     -269.705     447.286     -59.661
  H     -273.292     445.457     -58.477
  H     -272.722     443.568     -59.954
  H     -269.579     443.327     -61.833
  H     -270.918     441.601     -60.087
  H     -273.074     442.400     -60.775
  H     -272.280     441.914     -63.677
  H     -273.725     443.920     -64.063
  H     -274.616     442.597     -63.327
  P     -274.609     440.276     -61.496
  C     -276.697     440.817     -62.887
  O     -275.287     440.721     -62.891
  O     -275.228     440.851     -60.265
  O     -274.734     438.677     -61.547
  H     -274.752     438.302     -60.637
  H     -277.017     441.276     -63.830
  H     -277.036     441.444     -62.056
  H     -277.142     439.823     -62.814
  H     -276.396     447.507     -62.943
  H     -276.821     445.949     -63.610
  H     -275.142     446.406     -63.461

 3  4  5  6  7  8  9  10  11  12  13  23  28  29  30  31  32 0
 6-311+G(2d,p)
 ****
 33  34 0
 6-311+G(2d,p)
 ****
 1  2  14  15  16  17  18  19  20  21  22  24  25  26  27 0
 3-21G
 ****
 35  36  37  38  39  40  41  42  43  44  45 0
 3-21G
 ****


