%nproc=1
%NoSave
%Mem=1900MB
#P OB98/GEN NMR

erre ene a

0 1
  C      262.216    -452.079    -655.509
  O      261.913    -452.540    -654.201
  P      260.561    -453.406    -654.005
  C      261.326    -454.945    -652.053
  O      260.511    -453.856    -652.467
  C      261.595    -454.901    -650.552
  O      262.614    -453.875    -650.290
  C      260.374    -454.542    -649.684
  O      260.500    -455.276    -648.467
  C      260.547    -453.060    -649.468
  O      259.778    -452.529    -648.394
  C      262.063    -452.997    -649.283
  N      265.359    -449.508    -647.445
  C      265.105    -450.803    -647.088
  N      264.219    -451.664    -647.626
  C      263.558    -451.079    -648.649
  C      263.683    -449.796    -649.109
  C      264.645    -448.981    -648.458
  N      264.893    -447.669    -648.818
  N      262.826    -449.556    -650.172
  C      262.165    -450.684    -650.324
  N      262.589    -451.632    -649.455
  O      260.886    -454.776    -654.779
  O      259.319    -452.755    -654.516
  H      260.114    -451.653    -648.137
  H      260.116    -455.103    -655.264
  H      265.688    -451.191    -646.255
  H      261.379    -450.851    -651.050
  H      262.376    -453.359    -648.304
  H      260.241    -452.515    -650.356
  H      259.425    -454.817    -650.168
  H      262.025    -455.872    -650.250
  H      262.289    -454.895    -652.582
  H      265.427    -447.123    -648.171
  H      264.214    -447.233    -649.436
  H      260.840    -455.895    -652.344
  P      259.297    -456.234    -648.007
  C      260.882    -457.448    -646.359
  O      259.697    -456.676    -646.492
  O      259.635    -457.585    -648.815
  O      257.914    -455.712    -648.211
  H      260.569    -457.848    -648.697
  H      261.092    -457.575    -645.292
  H      261.727    -456.946    -646.834
  H      260.731    -458.445    -646.828
  H      263.131    -451.525    -655.489
  H      261.425    -451.448    -655.857
  H      262.320    -452.916    -656.167

 3  4  5  6  7  8  9  10  11  12  22  25  29  30  31  32 0
 6-311+G(2d,p)
 ****
 33  36  37 0
 6-311+G(2d,p)
 ****
 1  2  13  14  15  16  17  18  19  20  21  23  24  26 0
 3-21G
 ****
 27  28  34  35  38  39  40  41  42  43  44  45  46  47  48 0
 3-21G
 ****


