%nproc=1
%NoSave
%Mem=1900MB
#P OB98/GEN NMR

erre ene a

0 1
  C       10.298    -382.329     -33.320
  O       10.519    -381.143     -32.579
  H       10.158    -382.062     -34.372
  H        9.403    -382.850     -32.968
  H       11.169    -382.989     -33.243
  P       10.499    -381.244     -30.976
  C        9.846    -378.744     -30.873
  O       10.770    -379.746     -30.450
  C       10.017    -377.460     -30.057
  O        9.842    -377.734     -28.656
  C       11.406    -376.842     -30.175
  O       11.694    -376.293     -31.444
  C       11.474    -375.954     -28.939
  O       10.913    -374.659     -29.135
  C       10.613    -376.751     -27.927
  N       11.419    -377.357     -26.874
  C       11.290    -376.797     -25.609
  O       10.564    -375.828     -25.367
  N       12.063    -377.354     -24.633
  C       12.966    -378.364     -24.798
  O       13.662    -378.793     -23.884
  C       13.081    -378.900     -26.165
  C       12.313    -378.384     -27.126
  O       11.411    -382.269     -30.372
  O        8.953    -381.475     -30.627
  H       11.371    -374.264     -29.903
  H        8.844    -381.815     -29.705
  H       11.972    -376.969     -23.703
  H       13.794    -379.705     -26.341
  H       12.376    -378.761     -28.145
  H        9.886    -376.082     -27.446
  H       12.506    -375.807     -28.607
  H       12.146    -377.638     -30.023
  H        9.241    -376.748     -30.365
  H        8.832    -379.137     -30.719
  H        9.985    -378.543     -31.940
  P       13.029    -376.613     -32.257
  C       13.538    -374.066     -32.415
  O       13.421    -375.301     -33.109
  O       13.117    -377.955     -32.917
  O       14.129    -376.583     -31.077
  H       14.811    -377.250     -31.295
  H       13.801    -373.292     -33.106
  H       14.297    -374.148     -31.666
  H       12.604    -373.828     -31.951

 6  7  8  9  10  11  12  13  14  15  16  26  31  32  33  34  35 0
 6-311+G(2d,p)
 ****
 36  37 0
 6-311+G(2d,p)
 ****
 1  2  3  4  5  17  18  19  20  21  22  23  24  25 0
 3-21G
 ****
 27  28  29  30  38  39  40  41  42  43  44  45 0
 3-21G
 ****


