%nproc=1
%NoSave
%Mem=1900MB
#P OB98/GEN NMR

erre ene a

0 1
  C      314.575    -898.360      35.979
  O      315.623    -899.290      36.226
  P      316.843    -898.910      37.181
  C      317.561    -896.900      35.732
  O      317.955    -898.140      36.294
  C      318.722    -895.910      35.758
  O      319.261    -895.800      37.085
  C      319.894    -896.310      34.883
  O      319.618    -896.120      33.500
  C      321.000    -895.410      35.426
  O      320.893    -894.080      34.889
  C      320.654    -895.410      36.933
  N      321.557    -896.250      37.714
  C      322.746    -895.670      38.135
  O      323.044    -894.540      37.770
  N      323.583    -896.400      38.948
  C      323.309    -897.640      39.200
  N      324.139    -898.300      40.043
  C      322.131    -898.330      38.641
  C      321.288    -897.580      37.930
  O      317.367    -900.000      38.024
  O      316.259    -897.710      38.092
  H      316.454    -897.910      39.033
  H      321.649    -893.570      35.254
  H      321.994    -899.390      38.812
  H      320.383    -898.020      37.497
  H      320.713    -894.380      37.342
  H      322.002    -895.780      35.197
  H      320.154    -897.360      35.065
  H      318.324    -894.930      35.462
  H      324.921    -897.790      40.430
  H      316.724    -896.490      36.311
  H      323.846    -899.130      40.550
  H      317.216    -897.070      34.706
  P      319.487    -897.460      32.611
  C      321.964    -897.440      31.795
  O      320.608    -897.360      31.441
  O      318.106    -897.270      31.840
  O      319.518    -898.740      33.383
  H      317.656    -898.130      31.750
  H      322.528    -897.710      30.899
  H      322.130    -898.220      32.550
  H      322.292    -896.480      32.173
  H      313.857    -898.799      35.318
  H      314.980    -897.477      35.530
  H      314.100    -898.104      36.903

 3  4  5  6  7  8  9  10  11  12  13  24  27  28  29  30  32 0
 6-311+G(2d,p)
 ****
 34  35 0
 6-311+G(2d,p)
 ****
 1  2  14  15  16  17  18  19  20  21  22  23  25  26 0
 3-21G
 ****
 31  33  36  37  38  39  40  41  42  43  44  45  46 0
 3-21G
 ****


