%nproc=1
%NoSave
%Mem=1900MB
#P OB98/GEN NMR

erre ene a

0 1
  C      847.470     358.753       5.198
  O      848.332     359.618       5.939
  P      847.945     361.171       6.006
  C      847.207     360.831       8.499
  O      846.921     361.367       7.222
  C      846.232     361.376       9.562
  O      846.416     362.802       9.662
  C      844.755     361.182       9.247
  O      844.003     361.326      10.454
  C      844.473     362.357       8.333
  O      843.070     362.629       8.232
  C      845.332     363.479       8.963
  N      845.872     364.436       7.975
  C      845.222     365.652       7.807
  O      844.223     365.997       8.437
  N      845.741     366.484       6.860
  C      846.845     366.247       6.094
  O      847.214     366.990       5.191
  C      847.574     365.007       6.409
  C      847.060     364.169       7.309
  O      847.045     361.397       4.694
  O      849.124     362.090       6.043
  H      842.660     361.807       7.885
  H      847.558     361.882       4.018
  H      845.246     367.346       6.675
  H      848.497     364.813       5.870
  H      847.577     363.235       7.538
  H      844.747     364.056       9.694
  H      844.828     362.126       7.327
  H      844.510     360.223       8.773
  H      846.479     360.941      10.531
  H      848.235     361.071       8.775
  H      847.137     359.738       8.467
  P      843.292     360.023      11.065
  C      844.293     360.465      13.391
  O      844.183     359.563      12.307
  O      842.933     358.961      10.076
  O      841.988     360.632      11.780
  H      841.335     359.924      11.910
  H      844.440     359.904      14.311
  H      843.391     361.082      13.484
  H      845.158     361.116      13.227
  H      847.848     357.753       5.239
  H      847.429     359.078       4.179
  H      846.488     358.781       5.621

 3  4  5  6  7  8  9  10  11  12  13  23  28  29  30  31  32 0
 6-311+G(2d,p)
 ****
 33  34 0
 6-311+G(2d,p)
 ****
 1  2  14  15  16  17  18  19  20  21  22  24  25  26  27 0
 3-21G
 ****
 35  36  37  38  39  40  41  42  43  44  45 0
 3-21G
 ****


