%nproc=1
%NoSave
%Mem=1900MB
#P OB98/GEN NMR

erre ene a

0 1
  C      -99.439      15.271      96.176
  O      -99.068      16.102      95.089
  P     -100.176      16.830      94.197
  C     -100.291      19.035      92.777
  O      -99.537      18.156      93.583
  C      -99.337      19.803      91.852
  O      -98.591      20.779      92.608
  C      -98.339      18.867      91.175
  O      -98.807      18.479      89.893
  C      -97.077      19.707      91.129
  O      -97.116      20.615      90.012
  C      -97.175      20.491      92.459
  N      -96.713      19.827      93.693
  C      -95.348      19.698      93.936
  O      -94.478      20.136      93.190
  N      -95.010      19.013      95.077
  C      -95.886      18.503      95.990
  O      -95.586      17.696      96.862
  C      -97.284      18.906      95.819
  C      -97.632      19.518      94.686
  O     -101.208      17.386      95.286
  O     -100.848      15.970      93.177
  H      -97.900      21.180      90.129
  H     -101.976      16.791      95.368
  H      -94.025      18.795      95.187
  H      -97.993      18.644      96.593
  H      -98.671      19.793      94.519
  H      -96.646      21.448      92.391
  H      -96.195      19.086      90.984
  H      -98.152      17.989      91.807
  H      -99.928      20.339      91.099
  H     -100.855      19.732      93.406
  H     -101.019      18.471      92.185
  P      -98.348      17.076      89.275
  C      -99.322      15.482      87.521
  O      -99.564      16.608      88.341
  O      -97.870      16.063      90.262
  O      -97.194      17.491      88.242
  H      -96.316      17.366      88.658
  H     -100.268      15.161      87.078
  H      -98.906      14.660      88.110
  H      -98.630      15.752      86.719
  H      -98.559      14.880      96.643
  H     -100.042      14.463      95.818
  H      -99.996      15.843      96.888

 3  4  5  6  7  8  9  10  11  12  13  23  28  29  30  31  32 0
 6-311+G(2d,p)
 ****
 33  34 0
 6-311+G(2d,p)
 ****
 1  2  14  15  16  17  18  19  20  21  22  24  25  26  27 0
 3-21G
 ****
 35  36  37  38  39  40  41  42  43  44  45 0
 3-21G
 ****


