%nproc=1
%NoSave
%Mem=1900MB
#P OB98/GEN NMR

erre ene a

0 1
  C     -349.100    -207.169    -280.778
  O     -349.295    -206.054    -279.908
  P     -348.196    -204.886    -279.880
  C     -347.592    -205.243    -277.412
  O     -348.065    -204.324    -278.384
  C     -347.765    -204.724    -275.973
  O     -347.146    -203.409    -275.827
  C     -349.224    -204.582    -275.525
  O     -349.265    -204.915    -274.133
  C     -349.495    -203.101    -275.731
  O     -350.628    -202.652    -275.008
  C     -348.148    -202.518    -275.299
  N     -347.956    -201.155    -275.777
  C     -348.611    -200.136    -275.080
  O     -349.398    -200.419    -274.171
  N     -348.383    -198.834    -275.451
  C     -347.681    -198.584    -276.518
  N     -347.464    -197.280    -276.839
  C     -347.124    -199.644    -277.382
  C     -347.276    -200.889    -276.942
  O     -348.348    -203.835    -280.937
  O     -346.817    -205.690    -280.071
  H     -350.403    -202.602    -274.053
  H     -346.200    -205.140    -280.596
  H     -346.622    -199.392    -278.306
  H     -346.896    -201.735    -277.496
  H     -348.050    -202.523    -274.209
  H     -349.679    -202.912    -276.799
  H     -349.911    -205.240    -276.069
  H     -347.237    -205.407    -275.299
  H     -347.872    -196.563    -276.258
  H     -346.532    -205.447    -277.594
  H     -346.889    -197.007    -277.626
  H     -348.106    -206.206    -277.541
  P     -349.572    -206.429    -273.702
  C     -350.668    -206.248    -271.346
  O     -349.503    -206.511    -272.102
  O     -348.210    -207.175    -274.129
  O     -350.740    -207.080    -274.363
  H     -348.405    -208.118    -274.284
  H     -350.516    -206.618    -270.326
  H     -351.536    -206.756    -271.774
  H     -350.855    -205.170    -271.311
  H     -349.919    -207.850    -280.674
  H     -348.188    -207.666    -280.522
  H     -349.048    -206.827    -281.790

 3  4  5  6  7  8  9  10  11  12  13  23  27  28  29  30  32 0
 6-311+G(2d,p)
 ****
 34  35 0
 6-311+G(2d,p)
 ****
 1  2  14  15  16  17  18  19  20  21  22  24  25  26 0
 3-21G
 ****
 31  33  36  37  38  39  40  41  42  43  44  45  46 0
 3-21G
 ****


