%nproc=1
%NoSave
%Mem=1900MB
#P OB98/GEN NMR

erre ene a

0 1
  C     -145.672     -39.383     -81.830
  O     -146.184     -38.310     -81.060
  P     -147.664     -37.778     -81.377
  C     -148.955     -39.806     -80.315
  O     -148.603     -39.077     -81.477
  C     -150.346     -40.427     -80.477
  O     -150.576     -41.360     -79.387
  C     -151.499     -39.414     -80.465
  O     -152.499     -39.898     -81.373
  C     -151.997     -39.489     -79.034
  O     -153.332     -39.029     -78.893
  C     -151.808     -40.980     -78.742
  N     -151.756     -41.293     -77.314
  C     -152.868     -41.903     -76.740
  O     -153.897     -42.174     -77.358
  N     -152.772     -42.174     -75.399
  C     -151.731     -41.841     -74.583
  O     -151.706     -42.092     -73.384
  C     -150.606     -41.155     -75.234
  C     -150.665     -40.927     -76.547
  O     -147.502     -37.299     -82.893
  O     -148.142     -36.731     -80.432
  H     -146.900     -37.861     -83.407
  H     -153.897     -39.554     -79.491
  H     -153.553     -42.650     -74.970
  H     -149.766     -40.861     -74.617
  H     -149.849     -40.423     -77.049
  H     -152.611     -41.559     -79.215
  H     -151.356     -38.871     -78.394
  H     -151.179     -38.413     -80.765
  H     -150.358     -41.009     -81.408
  H     -148.962     -39.137     -79.454
  H     -148.202     -40.581     -80.133
  P     -153.458     -38.822     -82.089
  C     -151.710     -38.523     -84.015
  O     -152.540     -37.923     -83.042
  O     -153.755     -37.842     -80.853
  O     -154.703     -39.388     -82.688
  H     -152.952     -37.583     -80.373
  H     -151.441     -37.769     -84.758
  H     -152.218     -39.346     -84.520
  H     -150.796     -38.890     -83.539
  H     -144.682     -39.619     -81.499
  H     -145.646     -39.101     -82.862
  H     -146.302     -40.240     -81.711

 3  4  5  6  7  8  9  10  11  12  13  24  28  29  30  31  32 0
 6-311+G(2d,p)
 ****
 33  34 0
 6-311+G(2d,p)
 ****
 1  2  14  15  16  17  18  19  20  21  22  23  25  26  27 0
 3-21G
 ****
 35  36  37  38  39  40  41  42  43  44  45 0
 3-21G
 ****


