%nproc=1
%NoSave
%Mem=1900MB
#P OB98/GEN NMR

erre ene a

0 1
  C      199.206     113.269     -74.867
  O      199.891     113.741     -76.022
  P      200.925     112.736     -76.727
  C      201.531     112.183     -79.191
  O      200.779     113.004     -78.303
  C      201.144     112.463     -80.639
  O      199.772     112.097     -80.852
  C      201.241     113.926     -81.045
  O      202.576     114.298     -81.365
  C      200.356     113.944     -82.285
  O      201.105     113.472     -83.422
  C      199.254     112.938     -81.917
  N      194.212     112.512     -81.676
  C      195.152     111.654     -82.218
  N      194.677     110.505     -82.748
  N      196.433     111.900     -82.242
  C      196.765     113.066     -81.639
  C      195.929     114.001     -81.071
  C      194.507     113.742     -81.095
  O      193.627     114.491     -80.688
  N      196.639     115.053     -80.548
  C      197.900     114.740     -80.762
  N      198.029     113.559     -81.454
  O      200.238     111.304     -76.530
  O      202.312     112.768     -76.179
  H      201.185     112.502     -83.326
  H      200.915     110.604     -76.548
  H      193.242     112.265     -81.668
  H      198.746     115.334     -80.444
  H      199.016     112.281     -82.760
  H      199.991     114.943     -82.534
  H      193.721     110.204     -82.643
  H      200.812     114.581     -80.277
  H      195.355     109.847     -83.121
  H      201.769     111.837     -81.285
  H      201.333     111.128     -78.968
  H      202.598     112.378     -79.033
  P      202.829     115.857     -81.678
  C      205.030     117.168     -82.107
  O      204.401     116.075     -81.465
  O      202.162     116.596     -80.429
  O      202.269     116.320     -82.981
  H      201.887     117.500     -80.677
  H      204.377     118.043     -82.142
  H      205.310     116.882     -83.125
  H      205.936     117.430     -81.554
  H      198.554     114.034     -74.502
  H      199.918     113.015     -74.109
  H      198.632     112.403     -75.122

 3  4  5  6  7  8  9  10  11  12  23  26  30  31  33  0
 6-311+G(2d,p)
 ****
 35  36  37  38 0
 6-311+G(2d,p)
 ****
 1  2  13  14  15  16  17  18  19  20  21  22  24  25  27  28  29 0
 3-21G
 ****
 32  34  39  40  41  42  43  44  45  46  47  48  49 0
 3-21G
 ****


