%nproc=1
%NoSave
%Mem=1900MB
#P OB98/GEN NMR

erre ene a

0 1
  C      -53.637      57.355      53.810
  O      -53.696      57.540      52.410
  H      -52.997      56.495      54.024
  H      -54.637      57.157      54.206
  H      -53.214      58.240      54.291
  P      -54.643      58.726      51.890
  C      -56.333      57.240      50.604
  O      -55.299      58.210      50.518
  C      -56.559      56.580      49.246
  O      -57.537      55.523      49.348
  C      -57.050      57.530      48.160
  O      -55.967      58.224      47.565
  C      -57.724      56.559      47.201
  O      -56.750      55.899      46.364
  C      -58.379      55.560      48.164
  N      -63.221      55.155      46.794
  C      -62.072      54.779      46.128
  N      -62.233      54.239      44.900
  N      -60.869      54.929      46.614
  C      -60.854      55.535      47.824
  C      -61.921      55.956      48.585
  C      -63.250      55.733      48.057
  O      -64.308      55.968      48.633
  N      -61.500      56.509      49.767
  C      -60.184      56.453      49.705
  N      -59.743      55.876      48.543
  O      -53.605      59.846      51.402
  O      -55.594      59.276      52.897
  H      -57.214      55.352      45.707
  H      -53.963      60.724      51.630
  H      -64.122      54.987      46.385
  H      -59.510      56.805      50.474
  H      -58.398      54.545      47.750
  H      -58.411      57.072      46.527
  H      -63.080      54.365      44.366
  H      -57.798      58.228      48.555
  H      -61.386      54.033      44.384
  H      -55.612      56.112      48.947
  H      -57.255      57.733      50.926
  H      -56.055      56.482      51.342
  P      -56.104      59.806      47.356
  C      -55.770      59.705      44.784
  O      -55.296      60.202      46.026
  O      -55.200      60.402      48.536
  O      -57.499      60.327      47.438
  H      -55.770      60.759      49.242
  H      -55.134      60.050      43.996
  H      -56.767      60.055      44.617
  H      -55.766      58.635      44.803

 6  7  8  9  10  11  12  13  14  15  26  29  33  34 0
 6-311+G(2d,p)
 ****
 36  38  39  40  41 0
 6-311+G(2d,p)
 ****
 1  2  3  4  5  16  17  18  19  20  21  22  23  24  25 0
 3-21G
 ****
 27  28  30  31  32  35  37  42  43  44  45  46  47 0
 3-21G
 ****
 48  49 0
 3-21G
 ****


