%nproc=1
%NoSave
%Mem=1900MB
#P OB98/GEN NMR

erre ene a

0 1
  C     -384.823    -319.628     -15.216
  O     -385.866    -319.195     -14.361
  P     -387.139    -320.149     -14.160
  C     -389.412    -320.378     -15.456
  O     -388.060    -319.960     -15.464
  C     -389.916    -320.572     -16.895
  O     -389.180    -321.669     -17.508
  C     -391.413    -320.900     -17.010
  O     -391.893    -320.274     -18.204
  C     -391.409    -322.414     -17.158
  O     -392.600    -322.904     -17.762
  C     -390.147    -322.615     -18.003
  N     -389.608    -323.977     -17.932
  C     -390.117    -324.920     -18.824
  O     -390.995    -324.684     -19.646
  N     -389.585    -326.177     -18.712
  C     -388.675    -326.596     -17.783
  O     -388.249    -327.743     -17.720
  C     -388.216    -325.570     -16.840
  C     -388.688    -324.326     -16.960
  O     -387.931    -319.369     -13.009
  O     -386.784    -321.562     -13.841
  H     -387.857    -318.403     -13.081
  H     -392.423    -323.798     -18.101
  H     -389.910    -326.874     -19.372
  H     -387.501    -325.861     -16.074
  H     -388.369    -323.549     -16.274
  H     -390.348    -322.355     -19.051
  H     -391.314    -322.876     -16.171
  H     -391.986    -320.545     -16.147
  H     -389.676    -319.661     -17.466
  H     -390.029    -319.620     -14.969
  H     -389.504    -321.309     -14.891
  P     -393.120    -319.241     -18.075
  C     -395.604    -319.417     -17.258
  O     -394.405    -320.076     -17.612
  O     -393.421    -318.961     -19.632
  O     -392.818    -317.993     -17.314
  H     -393.477    -319.773     -20.154
  H     -396.428    -320.135     -17.304
  H     -395.827    -318.594     -17.934
  H     -395.522    -319.043     -16.234
  H     -384.053    -318.886     -15.244
  H     -385.209    -319.778     -16.202
  H     -384.419    -320.548     -14.848

 3  4  5  6  7  8  9  10  11  12  13  24  28  29  30  31  32 0
 6-311+G(2d,p)
 ****
 33  34 0
 6-311+G(2d,p)
 ****
 1  2  14  15  16  17  18  19  20  21  22  23  25  26  27 0
 3-21G
 ****
 35  36  37  38  39  40  41  42  43  44  45 0
 3-21G
 ****


