%nproc=1
%NoSave
%Mem=1900MB
#P OB98/GEN NMR

erre ene a

0 1
  C     1359.104     796.181     590.218
  O     1358.754     795.185     589.236
  P     1359.464     793.735     589.416
  C     1357.125     792.630     589.880
  O     1358.449     792.888     590.334
  C     1356.600     791.348     590.501
  O     1357.419     790.219     590.109
  C     1356.622     791.343     592.032
  O     1355.557     792.153     592.549
  C     1356.491     789.837     592.307
  O     1355.107     789.431     592.196
  C     1357.310     789.226     591.155
  N     1358.625     788.777     591.606
  C     1358.851     787.412     591.609
  O     1357.981     786.584     591.263
  N     1360.073     787.000     592.000
  C     1361.117     787.802     592.433
  O     1362.188     787.367     592.751
  C     1360.813     789.233     592.441
  C     1359.600     789.656     592.034
  O     1360.680     794.079     590.377
  O     1359.837     793.113     588.111
  H     1360.477     794.780     591.013
  H     1354.664     789.751     593.015
  H     1360.258     785.979     591.961
  H     1361.567     789.905     592.814
  H     1359.357     790.716     592.083
  H     1356.791     788.387     590.719
  H     1356.822     789.577     593.304
  H     1357.579     791.699     592.375
  H     1355.586     791.167     590.128
  H     1357.108     792.557     588.787
  H     1356.498     793.503     590.141
  P     1355.909     793.072     593.800
  C     1355.298     795.076     592.242
  O     1356.158     794.550     593.209
  O     1357.388     792.571     594.184
  O     1354.896     793.009     594.918
  H     1357.942     792.424     593.394
  H     1355.414     796.174     592.205
  H     1354.244     794.849     592.460
  H     1355.548     794.682     591.234
  H     1358.583     797.091     590.005
  H     1360.159     796.358     590.186
  H     1358.830     795.833     591.192

 3  4  5  6  7  8  9  10  11  12  13  24  28  29  30  31  32 0
 6-311+G(2d,p)
 ****
 33  34 0
 6-311+G(2d,p)
 ****
 1  2  14  15  16  17  18  19  20  21  22  23  25  26  27 0
 3-21G
 ****
 35  36  37  38  39  40  41  42  43  44  45 0
 3-21G
 ****


