%nproc=1
%NoSave
%Mem=1900MB
#P OB98/GEN NMR

erre ene a

0 1
  C       -4.671       4.484       3.187
  O       -5.576       5.566       3.306
  P       -6.554       5.930       2.092
  C       -8.634       4.758       1.057
  O       -7.443       4.629       1.801
  C       -9.000       3.440       0.363
  O       -8.162       3.308      -0.810
  C       -8.753       2.187       1.196
  O       -9.501       1.109       0.629
  C       -7.276       1.953       0.972
  O       -6.891       0.612       1.265
  C       -7.086       2.390      -0.503
  N       -5.781       3.043      -0.710
  C       -4.710       2.217      -1.037
  O       -4.831       1.008      -1.228
  N       -3.479       2.813      -1.053
  C       -3.229       4.114      -0.732
  O       -2.118       4.548      -0.453
  C       -4.413       4.982      -0.633
  C       -5.619       4.410      -0.601
  O       -5.558       5.999       0.843
  O       -7.321       7.195       2.261
  H       -5.918       0.623       1.421
  H       -5.295       6.922       0.672
  H       -2.689       2.186      -1.147
  H       -4.258       6.046      -0.528
  H       -6.509       5.021      -0.476
  H       -7.148       1.534      -1.185
  H       -6.703       2.613       1.636
  H       -8.992       2.299       2.257
  H      -10.044       3.483       0.030
  H       -8.516       5.560       0.323
  H       -9.461       5.057       1.712
  P       -9.882      -0.122       1.583
  C      -11.344      -0.390       3.675
  O      -10.621       0.508       2.858
  O       -8.778      -1.079       1.887
  O      -11.083      -0.832       0.793
  H      -11.196      -1.744       1.117
  H      -11.348      -0.010       4.700
  H      -10.897      -1.388       3.669
  H      -12.375      -0.453       3.317
  H       -4.104       4.392       4.090
  H       -4.008       4.662       2.366
  H       -5.217       3.580       3.015

 3  4  5  6  7  8  9  10  11  12  13  23  28  29  30  31  32 0
 6-311+G(2d,p)
 ****
 33  34 0
 6-311+G(2d,p)
 ****
 1  2  14  15  16  17  18  19  20  21  22  24  25  26  27 0
 3-21G
 ****
 35  36  37  38  39  40  41  42  43  44  45 0
 3-21G
 ****


