%nproc=1
%NoSave
%Mem=1900MB
#P OB98/GEN NMR

erre ene a

0 1
  C     -232.796    -306.772     375.663
  O     -233.984    -306.113     375.292
  H     -232.157    -306.060     376.200
  H     -232.253    -307.115     374.777
  H     -233.011    -307.616     376.322
  P     -235.094    -306.911     374.448
  C     -237.086    -306.236     375.927
  O     -236.463    -306.085     374.653
  C     -237.575    -304.889     376.457
  O     -236.458    -304.149     377.017
  C     -238.230    -303.996     375.388
  O     -239.459    -303.469     375.884
  C     -237.222    -302.874     375.197
  O     -237.813    -301.678     374.692
  C     -236.630    -302.780     376.603
  N     -235.379    -302.031     376.622
  C     -235.472    -300.679     376.963
  O     -236.565    -300.179     377.233
  N     -234.336    -299.908     376.935
  C     -233.211    -300.433     376.559
  N     -232.132    -299.608     376.525
  C     -233.074    -301.850     376.159
  C     -234.184    -302.586     376.219
  O     -235.184    -308.369     374.756
  O     -234.734    -306.616     372.917
  H     -237.153    -300.947     374.768
  H     -235.122    -307.327     372.355
  H     -232.116    -302.234     375.851
  H     -234.181    -303.638     375.954
  H     -237.336    -302.302     377.299
  H     -236.448    -303.191     374.485
  H     -238.424    -304.528     374.454
  H     -238.268    -305.079     377.289
  H     -232.271    -298.641     376.797
  H     -236.357    -306.679     376.618
  H     -231.210    -299.901     376.221
  H     -237.938    -306.910     375.813
  P     -240.512    -302.954     374.778
  C     -242.413    -304.669     375.183
  O     -241.984    -303.321     375.284
  O     -240.264    -303.958     373.545
  O     -240.304    -301.526     374.378
  H     -239.837    -303.478     372.812
  H     -243.411    -304.755     375.559
  H     -241.761    -305.295     375.756
  H     -242.390    -304.975     374.158

 6  7  8  9  10  11  12  13  14  15  16  26  30  31  32  33  35 0
 6-311+G(2d,p)
 ****
 37  38 0
 6-311+G(2d,p)
 ****
 1  2  3  4  5  17  18  19  20  21  22  23  24  25 0
 3-21G
 ****
 27  28  29  34  36  39  40  41  42  43  44  45  46 0
 3-21G
 ****


