%nproc=1
%NoSave
%Mem=1900MB
#P OB98/GEN NMR

erre ene a

0 1
  C      555.559     403.811     127.944
  O      556.688     403.657     127.106
  H      555.548     402.995     128.679
  H      554.644     403.759     127.347
  H      555.602     404.764     128.480
  P      557.004     404.863     126.094
  C      559.199     405.545     127.303
  O      557.883     405.926     126.915
  C      560.236     406.265     126.435
  O      559.962     407.687     126.404
  C      561.671     406.116     126.923
  O      562.251     404.888     126.489
  C      562.321     407.307     126.231
  O      562.542     406.997     124.835
  C      561.237     408.383     126.375
  N      564.067     411.845     128.759
  C      564.266     411.227     127.539
  N      565.386     411.571     126.858
  N      563.449     410.343     127.028
  C      562.379     410.091     127.820
  C      562.067     410.641     129.045
  C      562.979     411.625     129.593
  O      562.843     412.222     130.655
  N      560.896     410.140     129.542
  C      560.502     409.274     128.628
  N      561.369     409.199     127.571
  O      555.586     405.604     125.946
  O      557.549     404.461     124.769
  H      563.033     406.157     124.806
  H      555.497     405.928     125.027
  H      564.739     412.517     129.109
  H      559.598     408.683     128.691
  H      561.219     409.069     125.516
  H      563.293     407.562     126.658
  H      566.076     412.210     127.220
  H      561.747     406.242     128.009
  H      565.536     411.151     125.952
  H      560.128     405.894     125.407
  H      559.313     404.465     127.176
  H      559.350     405.803     128.357
  P      563.656     404.467     127.139
  C      562.627     402.435     128.382
  O      563.296     403.687     128.494
  O      564.248     405.864     127.665
  O      564.595     403.770     126.208
  H      565.217     405.804     127.738
  H      562.453     402.035     129.359
  H      563.234     401.755     127.821
  H      561.691     402.574     127.882

 6  7  8  9  10  11  12  13  14  15  26  29  33  34 0
 6-311+G(2d,p)
 ****
 36  38  39  40  41 0
 6-311+G(2d,p)
 ****
 1  2  3  4  5  16  17  18  19  20  21  22  23  24  25 0
 3-21G
 ****
 27  28  30  31  32  35  37  42  43  44  45  46  47 0
 3-21G
 ****
 48  49 0
 3-21G
 ****


