%nproc=1
%NoSave
%Mem=1900MB
#P OB98/GEN NMR

erre ene a

0 1
  C     -103.425     -38.894     -72.262
  O     -103.863     -40.200     -71.950
  H     -102.421     -38.752     -71.850
  H     -104.096     -38.159     -71.811
  H     -103.384     -38.747     -73.345
  P     -105.229     -40.685     -72.640
  C     -107.618     -39.687     -72.836
  O     -106.370     -39.663     -72.159
  C     -108.722     -39.158     -71.925
  O     -108.844     -39.988     -70.748
  C     -108.493     -37.738     -71.423
  O     -108.898     -36.767     -72.379
  C     -109.404     -37.721     -70.207
  O     -110.775     -37.571     -70.627
  C     -109.177     -39.123     -69.625
  N     -108.094     -39.300     -64.675
  C     -109.317     -39.222     -65.315
  N     -110.408     -39.172     -64.522
  N     -109.460     -39.188     -66.615
  C     -108.281     -39.232     -67.282
  C     -107.009     -39.315     -66.761
  C     -106.867     -39.358     -65.324
  O     -105.808     -39.454     -64.707
  N     -106.064     -39.350     -67.752
  C     -106.760     -39.269     -68.869
  N     -108.112     -39.188     -68.638
  O     -105.586     -42.033     -71.846
  O     -105.156     -40.924     -74.109
  H     -110.935     -38.245     -71.312
  H     -105.995     -42.665     -72.470
  H     -108.040     -39.313     -63.671
  H     -106.337     -39.266     -69.864
  H     -110.078     -39.529     -69.153
  H     -109.184     -36.896     -69.528
  H     -110.367     -39.145     -63.513
  H     -107.455     -37.585     -71.103
  H     -111.318     -39.147     -64.966
  H     -109.672     -39.226     -72.473
  H     -107.850     -40.719     -73.124
  H     -107.547     -39.073     -73.738
  P     -108.072     -35.387     -72.434
  C     -107.966     -33.269     -70.934
  O     -108.512     -34.570     -71.126
  O     -108.784     -34.590     -73.625
  O     -106.606     -35.538     -72.655
  H     -108.172     -33.925     -73.995
  H     -108.349     -32.852     -70.026
  H     -108.239     -32.643     -71.757
  H     -106.900     -33.335     -70.874

 6  7  8  9  10  11  12  13  14  15  26  29  33  34 0
 6-311+G(2d,p)
 ****
 36  38  39  40  41 0
 6-311+G(2d,p)
 ****
 1  2  3  4  5  16  17  18  19  20  21  22  23  24  25 0
 3-21G
 ****
 27  28  30  31  32  35  37  42  43  44  45  46  47 0
 3-21G
 ****
 48  49 0
 3-21G
 ****


