%nproc=1
%NoSave
%Mem=1900MB
#P OB98/GEN NMR

erre ene a

0 1
  C     -435.433    1259.310     827.980
  O     -435.319    1260.482     828.810
  P     -435.903    1260.557     830.308
  C     -436.694    1262.605     831.664
  O     -435.674    1262.045     830.854
  C     -436.409    1264.087     831.958
  O     -435.231    1264.219     832.800
  C     -436.091    1264.936     830.747
  O     -437.231    1265.211     829.957
  C     -435.470    1266.175     831.393
  O     -436.468    1267.105     831.826
  C     -434.741    1265.563     832.630
  N     -433.301    1265.584     832.510
  C     -432.581    1265.019     833.556
  O     -433.153    1264.614     834.572
  N     -431.199    1264.945     833.448
  C     -430.613    1265.476     832.433
  N     -429.257    1265.355     832.370
  C     -431.325    1266.205     831.370
  C     -432.659    1266.214     831.465
  O     -435.381    1259.487     831.214
  O     -437.484    1260.431     830.145
  H     -437.874    1260.063     830.974
  H     -436.942    1267.408     831.013
  H     -430.794    1266.671     830.550
  H     -433.266    1266.716     830.716
  H     -435.050    1266.091     833.533
  H     -434.800    1266.706     830.717
  H     -435.331    1264.422     830.139
  H     -437.281    1264.492     832.495
  H     -428.804    1264.849     833.116
  H     -436.725    1262.053     832.611
  H     -428.700    1265.719     831.603
  H     -437.664    1262.487     831.173
  P     -437.022    1265.282     828.365
  C     -438.806    1267.157     828.161
  O     -438.363    1265.898     827.724
  O     -437.042    1263.758     827.900
  O     -435.757    1265.977     827.942
  H     -436.361    1263.615     827.209
  H     -439.370    1267.639     827.343
  H     -437.978    1267.819     828.424
  H     -439.462    1267.055     829.026
  H     -434.973    1259.498     827.033
  H     -436.467    1259.076     827.834
  H     -434.944    1258.486     828.457

 3  4  5  6  7  8  9  10  11  12  13  24  27  28  29  30  32 0
 6-311+G(2d,p)
 ****
 34  35 0
 6-311+G(2d,p)
 ****
 1  2  14  15  16  17  18  19  20  21  22  23  25  26 0
 3-21G
 ****
 31  33  36  37  38  39  40  41  42  43  44  45  46 0
 3-21G
 ****


