%nproc=1
%NoSave
%Mem=1900MB
#P OB98/GEN NMR

erre ene a

0 1
  C     -893.853     258.504     363.629
  O     -893.743     259.000     362.315
  H     -893.573     259.294     364.334
  H     -893.153     257.661     363.782
  H     -894.873     258.189     363.855
  P     -894.243     258.078     361.105
  C     -895.853     259.631     359.821
  O     -895.723     258.543     360.734
  C     -896.413     260.851     360.547
  O     -895.553     261.231     361.643
  C     -896.543     262.089     359.667
  O     -897.643     262.005     358.792
  C     -896.643     263.187     360.714
  O     -897.973     263.288     361.225
  C     -895.663     262.669     361.800
  N     -894.353     263.316     361.737
  C     -894.203     264.492     362.472
  O     -895.123     265.005     363.106
  N     -892.973     265.081     362.396
  C     -891.933     264.674     361.610
  O     -890.863     265.292     361.524
  C     -892.143     263.444     360.850
  C     -893.313     262.830     360.933
  O     -894.063     256.604     361.296
  O     -893.373     258.608     359.849
  H     -898.263     262.377     361.438
  H     -892.673     257.960     359.652
  H     -892.843     265.943     362.914
  H     -891.343     263.082     360.217
  H     -893.503     261.913     360.368
  H     -896.083     262.839     362.803
  H     -896.373     264.163     360.313
  H     -895.613     262.238     359.083
  H     -897.403     260.576     360.967
  H     -896.533     259.330     359.015
  H     -894.863     259.852     359.391
  P     -897.493     261.359     357.342
  C     -899.583     259.870     357.286
  O     -898.163     259.906     357.365
  O     -896.103     261.406     356.768
  O     -898.503     262.205     356.424
  H     -898.003     262.656     355.718
  H     -899.916     258.853     357.310
  H     -899.901     260.328     356.373
  H     -900.000     260.401     358.116

 6  7  8  9  10  11  12  13  14  15  16  26  31  32  33  34  35 0
 6-311+G(2d,p)
 ****
 36  37 0
 6-311+G(2d,p)
 ****
 1  2  3  4  5  17  18  19  20  21  22  23  24  25 0
 3-21G
 ****
 27  28  29  30  38  39  40  41  42  43  44  45 0
 3-21G
 ****


