%nproc=1
%NoSave
%Mem=1900MB
#P OB98/GEN NMR

erre ene a

0 1
  C       14.789     -98.893     108.367
  O       14.904    -100.286     108.159
  H       14.110     -98.456     107.631
  H       14.383     -98.717     109.368
  H       15.772     -98.417     108.295
  P       15.451    -100.760     106.727
  C       13.109    -101.129     105.656
  O       14.307    -101.720     106.138
  C       11.935    -102.056     105.952
  O       10.724    -101.527     105.364
  C       12.098    -103.457     105.375
  O       12.894    -104.294     106.196
  C       10.653    -103.923     105.350
  O       10.237    -104.290     106.677
  C        9.925    -102.648     104.896
  N       10.664     -99.676     100.794
  C       10.985     -99.512     102.096
  N       10.773    -100.361     103.123
  C       10.171    -101.482     102.697
  C        9.790    -101.793     101.402
  C       10.055    -100.825     100.419
  N        9.701    -100.974      99.097
  N        9.178    -103.031     101.360
  C        9.209    -103.464     102.604
  N        9.769    -102.549     103.454
  O       16.628    -101.783     107.088
  O       15.884     -99.673     105.801
  H        9.476    -104.893     106.581
  H       17.177    -101.961     106.301
  H       11.474     -98.575     102.346
  H        8.830    -104.420     102.940
  H        8.926    -102.552     105.339
  H       10.501    -104.797     104.712
  H       12.481    -103.427     104.348
  H       11.789    -102.091     107.038
  H       13.195    -100.976     104.575
  H        9.799    -100.167      98.500
  H        9.119    -101.756      98.835
  H       12.958    -100.161     106.145
  P       14.127    -105.057     105.501
  C       12.504    -106.785     104.436
  O       13.645    -106.569     105.259
  O       15.182    -105.193     106.695
  O       14.701    -104.358     104.313
  H       16.096    -105.160     106.357
  H       12.306    -107.834     104.369
  H       12.691    -106.394     103.458
  H       11.657    -106.289     104.863

 6  7  8  9  10  11  12  13  14  15  25  28  32  33  34  35 0
 6-311+G(2d,p)
 ****
 36  39  40 0
 6-311+G(2d,p)
 ****
 1  2  3  4  5  16  17  18  19  20  21  22  23  24 0
 3-21G
 ****
 26  27  29  30  31  37  38  41  42  43  44  45  46  47 0
 3-21G
 ****
 48 0
 3-21G
 ****


