%nproc=1
%NoSave
%Mem=1900MB
#P OB98/GEN NMR

erre ene a

0 1
  C      187.451     -79.219     -22.925
  O      186.479     -80.238     -22.925
  H      187.879     -79.146     -21.921
  H      186.997     -78.257     -23.174
  H      188.253     -79.449     -23.631
  P      185.652     -80.537     -24.268
  C      185.547     -82.832     -23.122
  O      184.882     -81.925     -23.992
  C      185.541     -84.248     -23.697
  O      184.186     -84.774     -23.678
  C      186.047     -84.330     -25.145
  O      186.981     -85.404     -25.271
  C      184.793     -84.649     -25.944
  O      185.071     -85.298     -27.182
  C      184.002     -85.471     -24.923
  N      182.598     -85.596     -25.289
  C      182.286     -86.606     -26.204
  O      183.174     -87.336     -26.648
  N      180.991     -86.733     -26.634
  C      180.093     -85.892     -26.224
  N      178.835     -86.055     -26.712
  C      180.384     -84.793     -25.281
  C      181.644     -84.707     -24.855
  O      186.464     -80.505     -25.519
  O      184.462     -79.468     -24.264
  H      184.220     -85.574     -27.586
  H      184.137     -79.349     -25.187
  H      179.601     -84.116     -24.974
  H      181.952     -83.932     -24.161
  H      184.426     -86.478     -24.816
  H      184.258     -83.716     -26.166
  H      186.516     -83.408     -25.488
  H      186.130     -84.894     -23.034
  H      178.681     -86.817     -27.362
  H      185.047     -82.812     -22.147
  H      178.061     -85.450     -26.484
  H      186.582     -82.499     -23.003
  P      188.534     -85.005     -25.190
  C      189.444     -86.932     -23.710
  O      189.382     -86.354     -25.005
  O      188.654     -84.274     -23.772
  O      188.979     -84.118     -26.305
  H      188.810     -83.320     -23.903
  H      190.041     -87.820     -23.744
  H      188.456     -87.179     -23.382
  H      189.882     -86.233     -23.028

 6  7  8  9  10  11  12  13  14  15  16  26  30  31  32  33  35 0
 6-311+G(2d,p)
 ****
 37  38 0
 6-311+G(2d,p)
 ****
 1  2  3  4  5  17  18  19  20  21  22  23  24  25 0
 3-21G
 ****
 27  28  29  34  36  39  40  41  42  43  44  45  46 0
 3-21G
 ****


