%nproc=1
%NoSave
%Mem=1900MB
#P OB98/GEN NMR

erre ene a

0 1
  C      403.362    -881.836    -291.853
  O      402.725    -881.554    -290.616
  P      403.340    -882.080    -289.239
  C      402.547    -884.508    -289.559
  O      402.472    -883.347    -288.752
  C      401.998    -885.723    -288.806
  O      402.816    -886.015    -287.659
  C      400.596    -885.523    -288.261
  O      399.611    -885.565    -289.281
  C      400.503    -886.662    -287.252
  O      400.205    -887.899    -287.900
  C      401.947    -886.672    -286.691
  N      402.041    -886.079    -285.363
  C      401.332    -886.719    -284.349
  O      400.600    -887.663    -284.602
  N      401.472    -886.243    -283.060
  C      402.149    -885.161    -282.846
  N      402.290    -884.761    -281.553
  C      402.780    -884.380    -283.926
  C      402.713    -884.900    -285.149
  O      403.572    -881.044    -288.202
  O      404.726    -882.771    -289.679
  H      405.442    -882.431    -289.103
  H      400.870    -888.011    -288.614
  H      403.261    -883.432    -283.698
  H      403.167    -884.390    -285.998
  H      402.318    -887.715    -286.632
  H      399.733    -886.487    -286.487
  H      400.536    -884.559    -287.733
  H      402.034    -886.577    -289.485
  H      401.864    -885.342    -280.842
  H      403.598    -884.694    -289.820
  H      403.043    -884.155    -281.260
  H      401.989    -884.340    -290.485
  P      399.113    -884.150    -289.857
  C      397.450    -883.187    -288.111
  O      397.610    -883.910    -289.297
  O      398.908    -884.424    -291.417
  O      400.050    -883.007    -289.623
  H      399.162    -883.634    -291.931
  H      396.415    -882.821    -288.079
  H      398.116    -882.312    -288.074
  H      397.639    -883.834    -287.258
  H      402.799    -881.400    -292.652
  H      403.417    -882.895    -291.992
  H      404.350    -881.425    -291.847

 3  4  5  6  7  8  9  10  11  12  13  24  27  28  29  30  32 0
 6-311+G(2d,p)
 ****
 34  35 0
 6-311+G(2d,p)
 ****
 1  2  14  15  16  17  18  19  20  21  22  23  25  26 0
 3-21G
 ****
 31  33  36  37  38  39  40  41  42  43  44  45  46 0
 3-21G
 ****


