%nproc=1
%NoSave
%Mem=1900MB
#P OB98/GEN NMR

erre ene a

0 1
  C      202.028    -101.153     -40.793
  O      203.218    -101.258     -40.006
  P      203.889    -102.711     -39.870
  C      203.837    -104.535     -37.996
  O      203.631    -103.177     -38.355
  C      202.867    -104.955     -36.885
  O      202.982    -104.039     -35.756
  C      201.391    -104.989     -37.309
  O      200.790    -106.105     -36.634
  C      200.845    -103.687     -36.759
  O      199.434    -103.725     -36.594
  C      201.647    -103.571     -35.457
  N      201.663    -102.212     -34.918
  C      201.209    -102.050     -33.612
  O      200.738    -102.970     -32.947
  N      201.275    -100.775     -33.115
  C      201.665     -99.663     -33.806
  O      201.705     -98.544     -33.308
  C      202.024     -99.883     -35.215
  C      202.003    -101.126     -35.695
  O      205.444    -102.350     -39.918
  O      203.426    -103.665     -40.925
  H      205.663    -101.516     -39.465
  H      199.009    -103.634     -37.471
  H      200.980    -100.639     -32.155
  H      202.284     -99.015     -35.812
  H      202.237    -101.319     -36.734
  H      201.232    -104.242     -34.692
  H      201.095    -102.862     -37.439
  H      201.262    -105.099     -38.391
  H      203.173    -105.949     -36.526
  H      204.861    -104.674     -37.640
  H      203.719    -105.164     -38.884
  P      200.094    -107.248     -37.527
  C      197.772    -107.419     -38.733
  O      198.558    -106.838     -37.711
  O      200.018    -108.441     -36.450
  O      200.844    -107.637     -38.761
  H      199.674    -108.151     -35.590
  H      196.720    -107.187     -38.541
  H      197.891    -108.503     -38.748
  H      198.053    -106.999     -39.701
  H      201.692    -100.137     -40.798
  H      201.267    -101.779     -40.375
  H      202.235    -101.465     -41.795

 3  4  5  6  7  8  9  10  11  12  13  24  28  29  30  31  32 0
 6-311+G(2d,p)
 ****
 33  34 0
 6-311+G(2d,p)
 ****
 1  2  14  15  16  17  18  19  20  21  22  23  25  26  27 0
 3-21G
 ****
 35  36  37  38  39  40  41  42  43  44  45 0
 3-21G
 ****


