%nproc=1
%NoSave
%Mem=1900MB
#P OB98/GEN NMR

erre ene a

0 1
  C     -268.627     168.782    -597.248
  O     -268.846     169.281    -595.928
  P     -268.229     168.399    -594.735
  C     -266.388     169.892    -593.687
  O     -266.685     168.822    -594.569
  C     -264.912     170.294    -593.789
  O     -264.063     169.263    -593.205
  C     -264.430     170.508    -595.229
  O     -263.465     171.574    -595.189
  C     -263.757     169.182    -595.541
  O     -262.902     169.233    -596.678
  C     -263.078     168.913    -594.203
  N     -259.589     165.481    -595.644
  C     -259.781     166.777    -595.986
  N     -260.743     167.628    -595.560
  C     -261.554     167.014    -594.674
  C     -261.480     165.703    -594.232
  C     -260.440     164.918    -594.755
  N     -260.251     163.597    -594.424
  N     -262.517     165.438    -593.345
  C     -263.228     166.552    -593.320
  N     -262.638     167.550    -594.042
  O     -268.158     166.926    -595.355
  O     -269.033     168.450    -593.479
  H     -262.195     169.887    -596.528
  H     -268.916     166.392    -595.053
  H     -259.071     167.182    -596.701
  H     -264.162     166.684    -592.804
  H     -262.204     169.561    -594.047
  H     -264.524     168.424    -595.745
  H     -265.227     170.776    -595.929
  H     -264.764     171.212    -593.204
  H     -266.610     169.604    -592.659
  H     -259.475     163.114    -594.853
  H     -260.869     163.137    -593.774
  H     -267.045     170.741    -593.922
  P     -263.952     173.068    -595.513
  C     -263.961     174.116    -593.172
  O     -264.743     173.526    -594.194
  O     -265.169     172.773    -596.521
  O     -262.919     173.997    -596.060
  H     -265.770     172.105    -596.150
  H     -264.628     174.449    -592.374
  H     -263.407     174.974    -593.562
  H     -263.262     173.377    -592.764
  H     -269.078     169.443    -597.959
  H     -269.064     167.810    -597.339
  H     -267.575     168.719    -597.436

 3  4  5  6  7  8  9  10  11  12  22  25  29  30  31  32 0
 6-311+G(2d,p)
 ****
 33  36  37 0
 6-311+G(2d,p)
 ****
 1  2  13  14  15  16  17  18  19  20  21  23  24  26 0
 3-21G
 ****
 27  28  34  35  38  39  40  41  42  43  44  45  46  47  48 0
 3-21G
 ****


