%nproc=1
%NoSave
%Mem=1900MB
#P OB98/GEN NMR

erre ene a

0 1
  C       55.205     625.768    1219.637
  O       54.493     626.963    1219.377
  H       54.854     624.996    1218.957
  H       55.019     625.443    1220.657
  H       56.274     625.913    1219.479
  P       54.931     628.308    1220.124
  C       53.931     629.792    1218.268
  O       53.921     629.461    1219.656
  C       52.827     630.818    1217.985
  O       52.984     631.981    1218.842
  C       52.833     631.341    1216.543
  O       52.318     630.401    1215.633
  C       52.000     632.617    1216.712
  O       50.599     632.308    1216.690
  C       52.431     633.109    1218.119
  N       53.395     634.207    1218.049
  C       53.571     634.940    1219.221
  O       52.994     634.668    1220.281
  N       54.418     636.008    1219.127
  C       54.968     636.508    1217.971
  O       55.504     637.589    1217.900
  C       54.768     635.677    1216.779
  C       53.989     634.589    1216.859
  O       56.386     628.655    1220.029
  O       54.493     628.046    1221.647
  H       55.286     627.799    1222.169
  H       50.477     631.652    1215.977
  H       54.532     636.566    1219.971
  H       55.250     635.978    1215.846
  H       53.823     633.963    1215.981
  H       51.559     633.448    1218.681
  H       52.206     633.324    1215.921
  H       53.860     631.633    1216.274
  H       51.847     630.352    1218.222
  H       53.745     628.883    1217.699
  H       54.922     630.205    1218.010
  P       52.697     630.490    1214.084
  C       51.832     628.096    1213.730
  O       51.784     629.434    1213.275
  O       54.157     630.412    1213.773
  O       52.102     631.889    1213.626
  H       52.808     632.400    1213.145
  H       51.192     627.490    1213.123
  H       51.504     628.053    1214.748
  H       52.836     627.732    1213.663

 6  7  8  9  10  11  12  13  14  15  16  27  31  32  33  34  35 0
 6-311+G(2d,p)
 ****
 36  37 0
 6-311+G(2d,p)
 ****
 1  2  3  4  5  17  18  19  20  21  22  23  24  25 0
 3-21G
 ****
 26  28  29  30  38  39  40  41  42  43  44  45 0
 3-21G
 ****


