%nproc=1
%NoSave
%Mem=1900MB
#P OB98/GEN NMR

erre ene a

0 1
  C      469.482     612.948     132.664
  O      469.679     612.328     133.921
  P      468.594     611.332     134.535
  C      468.199     612.822     136.597
  O      467.615     612.244     135.433
  C      467.152     613.603     137.395
  O      466.581     614.657     136.588
  C      465.972     612.760     137.878
  O      466.351     611.982     139.011
  C      464.940     613.841     138.161
  O      465.147     614.435     139.454
  C      465.226     614.865     137.038
  N      464.271     614.783     135.945
  C      463.182     615.639     136.023
  O      463.032     616.408     137.007
  N      462.223     615.597     135.026
  C      462.361     614.745     134.060
  N      461.382     614.737     133.107
  C      463.486     613.791     133.960
  C      464.390     613.863     134.928
  O      469.143     610.117     135.206
  O      467.664     610.988     133.254
  H      464.479     615.142     139.555
  H      468.127     610.371     132.639
  H      463.539     613.101     133.136
  H      465.253     613.199     134.932
  H      465.194     615.885     137.441
  H      463.921     613.436     138.150
  H      465.629     612.116     137.069
  H      467.660     614.071     138.263
  H      460.610     615.389     133.225
  H      468.990     613.504     136.293
  H      461.352     614.101     132.339
  H      468.642     612.035     137.213
  P      465.446     610.750     139.456
  C      465.279     611.260     141.971
  O      464.591     611.217     140.737
  O      466.146     609.448     139.586
  O      464.326     610.665     138.300
  H      464.208     609.729     138.045
  H      464.717     611.884     142.661
  H      466.285     611.685     141.838
  H      465.354     610.240     142.373
  H      470.321     613.572     132.439
  H      468.593     613.543     132.695
  H      469.383     612.198     131.908

 3  4  5  6  7  8  9  10  11  12  13  23  27  28  29  30  32 0
 6-311+G(2d,p)
 ****
 34  35 0
 6-311+G(2d,p)
 ****
 1  2  14  15  16  17  18  19  20  21  22  24  25  26 0
 3-21G
 ****
 31  33  36  37  38  39  40  41  42  43  44  45  46 0
 3-21G
 ****


