%nproc=1
%NoSave
%Mem=1900MB
#P OB98/GEN NMR

erre ene a

0 1
  C       64.483      72.043    -118.568
  O       63.299      71.273    -118.539
  H       64.962      71.914    -119.543
  H       65.180      71.717    -117.791
  H       64.247      73.103    -118.434
  P       62.486      71.159    -117.164
  C       62.524      69.603    -115.109
  O       63.114      69.914    -116.367
  C       62.782      68.142    -114.739
  O       62.115      67.293    -115.710
  C       64.268      67.766    -114.717
  O       64.485      66.848    -113.643
  C       64.457      67.079    -116.053
  O       65.569      66.203    -116.038
  C       63.099      66.402    -116.268
  N       62.859      66.134    -117.685
  C       63.579      65.075    -118.250
  O       64.358      64.414    -117.563
  N       63.456      64.833    -119.595
  C       62.719      65.613    -120.326
  N       62.671      65.340    -121.657
  C       61.962      66.755    -119.774
  C       62.075      66.956    -118.462
  O       60.997      71.140    -117.279
  O       62.991      72.422    -116.319
  H       65.713      65.845    -116.937
  H       62.413      73.190    -116.488
  H       61.369      67.379    -120.427
  H       61.565      67.779    -117.972
  H       63.046      65.453    -115.715
  H       64.630      67.831    -116.835
  H       64.927      68.635    -114.606
  H       62.313      67.941    -113.766
  H       63.226      64.558    -121.992
  H       61.446      69.776    -115.192
  H       62.169      65.899    -122.330
  H       62.929      70.264    -114.338
  P       65.685      67.075    -112.600
  C       68.246      67.046    -112.553
  O       67.087      66.919    -113.371
  O       65.579      66.278    -111.339
  O       65.617      68.645    -112.277
  H       65.938      68.801    -111.368
  H       69.122      66.927    -113.155
  H       68.231      66.293    -111.793
  H       68.256      68.013    -112.096

 6  7  8  9  10  11  12  13  14  15  16  26  30  31  32  33  35 0
 6-311+G(2d,p)
 ****
 37  38 0
 6-311+G(2d,p)
 ****
 1  2  3  4  5  17  18  19  20  21  22  23  24  25 0
 3-21G
 ****
 27  28  29  34  36  39  40  41  42  43  44  45  46 0
 3-21G
 ****


