%nproc=1
%NoSave
%Mem=1900MB
#P OB98/GEN NMR

erre ene a

0 1
  C     -131.387     182.377     255.003
  O     -131.213     182.145     256.388
  H     -131.146     181.455     254.465
  H     -130.707     183.163     254.667
  H     -132.420     182.653     254.782
  P     -131.633     183.292     257.424
  C     -134.161     182.756     257.468
  O     -132.942     182.775     258.203
  C     -135.030     181.570     257.893
  O     -134.440     180.349     257.374
  C     -135.166     181.414     259.413
  O     -136.491     180.974     259.724
  C     -134.169     180.320     259.745
  O     -134.514     179.615     260.937
  C     -134.219     179.457     258.486
  N     -132.298     174.838     257.736
  C     -133.610     175.260     257.788
  N     -134.558     174.306     257.641
  N     -133.969     176.502     257.978
  C     -132.917     177.354     258.086
  C     -131.570     177.063     258.049
  C     -131.190     175.678     257.863
  O     -130.041     175.242     257.820
  N     -130.808     178.196     258.217
  C     -131.695     179.167     258.355
  N     -132.983     178.706     258.298
  O     -131.760     184.662     256.834
  O     -130.499     183.243     258.551
  H     -133.860     178.888     261.038
  H     -129.883     183.993     258.462
  H     -132.076     173.868     257.600
  H     -131.454     180.211     258.509
  H     -135.036     178.724     258.511
  H     -133.170     180.758     259.882
  H     -134.357     173.333     257.470
  H     -134.953     182.342     259.943
  H     -135.532     174.591     257.649
  H     -136.017     181.673     257.421
  H     -133.917     182.672     256.402
  H     -134.699     183.696     257.635
  P     -137.439     181.919     260.612
  C     -138.369     183.124     258.539
  O     -138.687     182.390     259.715
  O     -136.740     183.019     261.343
  O     -138.113     180.884     261.637
  H     -138.243     181.334     262.498
  H     -139.271     183.383     258.025
  H     -137.754     182.525     257.900
  H     -137.843     184.016     258.807

 6  7  8  9  10  11  12  13  14  15  26  29  33  34 0
 6-311+G(2d,p)
 ****
 36  38  39  40  41 0
 6-311+G(2d,p)
 ****
 1  2  3  4  5  16  17  18  19  20  21  22  23  24  25 0
 3-21G
 ****
 27  28  30  31  32  35  37  42  43  44  45  46  47 0
 3-21G
 ****
 48  49 0
 3-21G
 ****


