%nproc=1
%NoSave
%Mem=1900MB
#P OB98/GEN NMR

erre ene a

0 1
  C       33.199    -191.956     877.081
  O       34.546    -191.854     877.485
  H       32.579    -192.170     877.959
  H       33.085    -192.777     876.368
  H       32.850    -191.023     876.632
  P       35.624    -191.259     876.456
  C       35.063    -188.836     877.156
  O       35.129    -189.781     876.077
  C       35.939    -187.613     876.850
  O       35.443    -186.970     875.623
  C       35.929    -186.540     877.963
  O       37.206    -185.905     877.943
  C       34.852    -185.599     877.481
  O       34.931    -184.352     878.127
  C       35.119    -185.601     875.974
  N       33.987    -185.098     875.203
  C       33.536    -183.820     875.516
  O       34.020    -183.133     876.426
  N       32.467    -183.362     874.789
  C       31.784    -184.069     873.840
  O       30.809    -183.623     873.249
  C       32.280    -185.422     873.575
  C       33.341    -185.871     874.253
  O       35.940    -192.127     875.275
  O       36.923    -190.981     877.357
  H       34.863    -184.462     879.106
  H       37.726    -191.080     876.821
  H       32.134    -182.435     875.010
  H       31.763    -186.020     872.845
  H       33.738    -186.880     874.076
  H       36.001    -184.981     875.733
  H       33.854    -186.005     877.684
  H       35.730    -186.965     878.953
  H       36.959    -187.950     876.634
  H       35.428    -189.338     878.056
  H       34.022    -188.527     877.306
  P       38.219    -185.947     879.206
  C       38.979    -188.411     878.945
  O       38.274    -187.464     879.757
  O       37.930    -184.924     880.247
  O       39.679    -185.731     878.563
  H       40.254    -185.314     879.231
  H       38.947    -189.374     879.411
  H       39.997    -188.101     878.838
  H       38.519    -188.466     877.980

 6  7  8  9  10  11  12  13  14  15  16  26  31  32  33  34  35 0
 6-311+G(2d,p)
 ****
 36  37 0
 6-311+G(2d,p)
 ****
 1  2  3  4  5  17  18  19  20  21  22  23  24  25 0
 3-21G
 ****
 27  28  29  30  38  39  40  41  42  43  44  45 0
 3-21G
 ****


