%nproc=1
%NoSave
%Mem=1900MB
#P OB98/GEN NMR

erre ene a

0 1
  C      111.015    -378.539     411.568
  O      109.862    -377.776     411.197
  P      108.401    -378.358     411.535
  C      108.339    -380.141     409.668
  O      108.326    -379.893     411.067
  C      108.662    -381.614     409.362
  O      108.574    -381.853     407.932
  C      110.069    -382.024     409.825
  O      110.082    -383.208     410.623
  C      110.864    -382.087     408.529
  O      112.011    -382.918     408.620
  C      109.795    -382.482     407.500
  N      110.169    -382.072     406.133
  C      110.143    -383.062     405.166
  O      109.892    -384.243     405.411
  N      110.461    -382.662     403.885
  C      110.877    -381.419     403.523
  O      111.206    -381.118     402.379
  C      110.957    -380.421     404.614
  C      110.599    -380.796     405.848
  O      107.250    -377.508     411.101
  O      108.430    -378.489     413.136
  H      112.613    -382.692     407.874
  H      107.554    -378.231     413.477
  H      110.426    -383.372     403.170
  H      111.306    -379.435     404.364
  H      110.664    -380.090     406.673
  H      109.645    -383.562     407.485
  H      111.223    -381.081     408.292
  H      110.510    -381.259     410.482
  H      107.910    -382.222     409.871
  H      109.092    -379.503     409.195
  H      107.369    -379.837     409.236
  P      110.306    -383.229     412.206
  C      112.876    -383.629     412.334
  O      111.805    -382.726     412.506
  O      109.934    -384.505     412.898
  O      109.395    -382.024     412.731
  H      108.951    -382.291     413.556
  H      113.730    -383.271     412.913
  H      113.151    -383.665     411.274
  H      112.610    -384.635     412.668
  H      111.900    -378.014     411.273
  H      110.985    -379.491     411.080
  H      111.022    -378.682     412.628

 3  4  5  6  7  8  9  10  11  12  13  23  28  29  30  31  32 0
 6-311+G(2d,p)
 ****
 33  34 0
 6-311+G(2d,p)
 ****
 1  2  14  15  16  17  18  19  20  21  22  24  25  26  27 0
 3-21G
 ****
 35  36  37  38  39  40  41  42  43  44  45 0
 3-21G
 ****


