%nproc=1
%NoSave
%Mem=1900MB
#P OB98/GEN NMR

erre ene a

0 1
  C     -210.626    -517.360     378.548
  O     -209.704    -516.264     378.446
  P     -209.338    -515.553     377.055
  C     -208.472    -513.145     376.708
  O     -208.242    -514.417     377.311
  C     -207.807    -512.010     377.490
  O     -208.353    -511.927     378.822
  C     -206.302    -512.165     377.679
  O     -205.603    -511.849     376.484
  C     -206.052    -511.210     378.837
  O     -205.942    -509.850     378.368
  C     -207.329    -511.390     379.679
  N     -207.111    -512.238     380.849
  C     -207.382    -511.677     382.096
  O     -207.738    -510.489     382.184
  N     -207.226    -512.446     383.222
  C     -206.764    -513.658     383.105
  N     -206.636    -514.385     384.254
  C     -206.377    -514.263     381.818
  C     -206.577    -513.506     380.742
  O     -210.533    -515.084     376.287
  O     -208.540    -516.665     376.226
  H     -205.310    -509.870     377.615
  H     -208.702    -516.526     375.270
  H     -205.967    -515.258     381.779
  H     -206.325    -513.872     379.755
  H     -207.706    -510.413     380.029
  H     -205.132    -511.434     379.383
  H     -206.070    -513.194     377.995
  H     -208.032    -511.067     376.972
  H     -206.920    -513.940     385.125
  H     -209.561    -512.977     376.681
  H     -206.286    -515.331     384.281
  H     -208.097    -513.171     375.679
  P     -204.660    -512.953     375.802
  C     -204.142    -513.761     373.422
  O     -204.832    -512.817     374.214
  O     -204.798    -514.338     376.334
  O     -203.178    -512.394     376.043
  H     -202.564    -513.143     376.134
  H     -204.631    -513.829     372.442
  H     -204.143    -514.748     373.894
  H     -203.105    -513.435     373.279
  H     -210.707    -517.664     379.571
  H     -210.272    -518.180     377.959
  H     -211.586    -517.053     378.190

 3  4  5  6  7  8  9  10  11  12  13  23  27  28  29  30  32 0
 6-311+G(2d,p)
 ****
 34  35 0
 6-311+G(2d,p)
 ****
 1  2  14  15  16  17  18  19  20  21  22  24  25  26 0
 3-21G
 ****
 31  33  36  37  38  39  40  41  42  43  44  45  46 0
 3-21G
 ****


