%nproc=1
%NoSave
%Mem=1900MB
#P OB98/GEN NMR

erre ene a

0 1
  C     -382.485    -629.169    1145.708
  O     -383.871    -629.290    1145.994
  H     -382.059    -628.420    1146.378
  H     -382.340    -628.834    1144.673
  H     -381.989    -630.122    1145.872
  P     -384.698    -630.324    1145.078
  C     -384.975    -632.478    1146.487
  O     -385.520    -631.211    1146.132
  C     -385.467    -632.902    1147.866
  O     -384.953    -632.025    1148.881
  C     -386.992    -632.888    1148.011
  O     -387.565    -634.075    1147.506
  C     -387.135    -632.813    1149.540
  O     -386.977    -634.132    1150.100
  C     -385.940    -631.918    1149.948
  N     -388.135    -628.479    1153.065
  C     -388.135    -629.810    1153.073
  N     -387.571    -630.669    1152.169
  C     -386.951    -629.995    1151.203
  C     -386.868    -628.615    1151.057
  C     -387.482    -627.837    1152.051
  N     -387.469    -626.436    1152.021
  N     -386.150    -628.281    1149.927
  C     -385.767    -629.434    1149.429
  N     -386.239    -630.514    1150.146
  O     -383.913    -631.058    1144.050
  O     -385.830    -629.345    1144.486
  H     -387.621    -634.706    1149.638
  H     -386.147    -628.736    1145.172
  H     -388.647    -630.268    1153.915
  H     -385.099    -629.553    1148.564
  H     -385.461    -632.266    1150.861
  H     -388.117    -632.447    1149.853
  H     -387.420    -631.985    1147.577
  H     -385.064    -633.906    1148.073
  H     -383.880    -632.430    1146.495
  H     -388.094    -625.992    1152.658
  H     -387.105    -625.992    1151.213
  H     -385.281    -633.208    1145.730
  P     -389.005    -634.077    1146.802
  C     -388.067    -634.109    1144.402
  O     -388.766    -634.835    1145.401
  O     -389.653    -632.739    1146.720
  O     -389.853    -635.133    1147.649
  H     -390.800    -635.020    1147.456
  H     -387.971    -634.713    1143.524
  H     -387.094    -633.849    1144.765
  H     -388.609    -633.217    1144.164

 6  7  8  9  10  11  12  13  14  15  25  28  32  33  34  35 0
 6-311+G(2d,p)
 ****
 36  39  40 0
 6-311+G(2d,p)
 ****
 1  2  3  4  5  16  17  18  19  20  21  22  23  24 0
 3-21G
 ****
 26  27  29  30  31  37  38  41  42  43  44  45  46  47 0
 3-21G
 ****
 48 0
 3-21G
 ****


