%nproc=1
%NoSave
%Mem=1900MB
#P OB98/GEN NMR

erre ene a

0 1
  C     -231.678    -667.459     796.166
  O     -230.762    -667.665     797.202
  P     -229.674    -666.588     797.639
  C     -228.469    -666.708     795.337
  O     -228.331    -666.804     796.747
  C     -227.123    -666.794     794.581
  O     -226.348    -665.594     794.854
  C     -226.303    -667.968     795.141
  O     -226.527    -669.278     794.673
  C     -224.864    -667.500     795.066
  O     -224.171    -667.986     793.905
  C     -224.987    -665.972     795.015
  N     -221.175    -663.238     796.964
  C     -221.474    -663.489     795.656
  N     -220.525    -663.087     794.759
  N     -222.587    -664.049     795.239
  C     -223.386    -664.483     796.265
  C     -223.196    -664.255     797.621
  C     -221.984    -663.596     798.057
  O     -221.644    -663.428     799.219
  N     -224.168    -664.889     798.380
  C     -224.921    -665.478     797.479
  N     -224.468    -665.291     796.195
  O     -229.510    -666.349     799.117
  O     -230.283    -665.237     796.996
  H     -224.157    -668.959     793.955
  H     -230.072    -664.493     797.596
  H     -220.265    -662.864     797.223
  H     -225.772    -666.094     797.707
  H     -224.428    -665.580     794.156
  H     -224.280    -667.868     795.940
  H     -219.617    -662.793     795.032
  H     -226.536    -668.037     796.214
  H     -220.635    -663.432     793.802
  H     -227.270    -666.822     793.503
  H     -228.966    -665.755     795.119
  H     -229.143    -667.498     794.968
  P     -227.661    -670.297     795.159
  C     -226.437    -670.695     797.373
  O     -227.005    -671.301     796.236
  O     -227.904    -671.247     793.916
  O     -228.933    -669.643     795.602
  H     -228.814    -671.655     793.989
  H     -225.774    -671.392     797.879
  H     -227.221    -670.405     798.081
  H     -225.873    -669.801     797.090
  H     -232.301    -668.323     796.064
  H     -231.150    -667.290     795.251
  H     -232.284    -666.606     796.390

 3  4  5  6  7  8  9  10  11  12  23  26  30  31 0
 6-311+G(2d,p)
 ****
 33  35  36  37  38 0
 6-311+G(2d,p)
 ****
 1  2  13  14  15  16  17  18  19  20  21  22  24  25 0
 3-21G
 ****
 27  28  29  32  34  39  40  41  42  43  44  45  46  47  48  49 0
 3-21G
 ****


