%nproc=1
%NoSave
%Mem=1900MB
#P OB98/GEN NMR

erre ene a

0 1
  C     -266.222    -704.207    -284.468
  O     -267.077    -703.263    -283.811
  P     -266.500    -701.988    -283.025
  C     -265.546    -699.710    -283.798
  O     -265.582    -701.115    -284.022
  C     -264.629    -699.008    -284.811
  O     -263.287    -699.523    -284.736
  C     -265.052    -699.160    -286.275
  O     -266.157    -698.344    -286.580
  C     -263.751    -698.795    -286.991
  O     -263.610    -697.351    -287.091
  C     -262.686    -699.373    -286.039
  N     -262.142    -700.637    -286.518
  C     -261.440    -700.586    -287.737
  O     -261.344    -699.538    -288.364
  N     -260.862    -701.744    -288.217
  C     -261.053    -702.858    -287.575
  N     -260.473    -703.974    -288.099
  C     -261.866    -702.978    -286.341
  C     -262.370    -701.827    -285.880
  O     -265.839    -702.307    -281.724
  O     -267.774    -701.035    -282.783
  H     -263.352    -697.039    -286.214
  H     -267.645    -700.545    -281.951
  H     -262.024    -703.927    -285.865
  H     -262.973    -701.825    -284.981
  H     -261.859    -698.656    -285.905
  H     -263.706    -699.208    -288.003
  H     -265.288    -700.210    -286.472
  H     -264.590    -697.934    -284.531
  H     -259.912    -703.866    -288.934
  H     -265.165    -699.528    -282.782
  H     -260.548    -704.898    -287.677
  H     -266.566    -699.315    -283.863
  P     -267.647    -698.884    -286.358
  C     -268.805    -698.922    -284.060
  O     -268.253    -698.118    -285.099
  O     -267.797    -700.372    -286.335
  O     -268.473    -698.253    -287.592
  H     -269.193    -698.861    -287.829
  H     -268.796    -698.366    -283.128
  H     -268.197    -699.829    -283.923
  H     -269.819    -699.201    -284.316
  H     -266.817    -704.970    -284.924
  H     -265.562    -704.650    -283.751
  H     -265.648    -703.706    -285.219

 3  4  5  6  7  8  9  10  11  12  13  23  27  28  29  30  32 0
 6-311+G(2d,p)
 ****
 34  35 0
 6-311+G(2d,p)
 ****
 1  2  14  15  16  17  18  19  20  21  22  24  25  26 0
 3-21G
 ****
 31  33  36  37  38  39  40  41  42  43  44  45  46 0
 3-21G
 ****


