%nproc=1
%NoSave
%Mem=1900MB
#P OB98/GEN NMR

erre ene a

0 1
  C     -426.462     663.354     -35.916
  O     -425.874     662.226     -35.289
  H     -426.794     663.092     -36.925
  H     -427.332     663.663     -35.326
  H     -425.748     664.180     -35.953
  P     -424.558     661.629     -35.989
  C     -425.997     659.638     -36.823
  O     -425.068     660.662     -37.162
  C     -425.375     658.266     -37.079
  O     -426.276     657.223     -36.629
  C     -425.097     657.956     -38.551
  O     -423.894     658.569     -38.996
  C     -424.968     656.442     -38.506
  O     -423.662     656.082     -38.014
  C     -426.048     656.055     -37.474
  N     -428.407     652.511     -40.308
  C     -427.159     652.580     -39.811
  N     -426.603     653.545     -39.047
  C     -427.506     654.518     -38.785
  C     -428.820     654.572     -39.211
  C     -429.278     653.512     -40.015
  N     -430.549     653.490     -40.581
  N     -429.424     655.735     -38.761
  C     -428.487     656.370     -38.098
  N     -427.304     655.674     -38.080
  O     -423.990     660.624     -34.873
  O     -423.533     662.643     -36.385
  H     -423.597     656.447     -37.108
  H     -423.289     661.070     -34.363
  H     -426.501     651.748     -40.061
  H     -428.602     657.329     -37.617
  H     -425.718     655.244     -36.816
  H     -425.090     655.969     -39.487
  H     -425.948     658.225     -39.186
  H     -424.451     658.193     -36.486
  H     -426.897     659.750     -37.432
  H     -430.591     652.975     -41.455
  H     -431.038     654.379     -40.540
  H     -426.264     659.737     -35.766
  P     -423.816     659.042     -40.528
  C     -422.687     656.842     -41.294
  O     -423.813     657.706     -41.423
  O     -422.318     659.589     -40.658
  O     -424.809     660.085     -40.925
  H     -422.329     660.517     -40.975
  H     -422.810     655.997     -41.939
  H     -422.608     656.509     -40.280
  H     -421.798     657.372     -41.566

 6  7  8  9  10  11  12  13  14  15  25  28  32  33  34  35 0
 6-311+G(2d,p)
 ****
 36  39  40 0
 6-311+G(2d,p)
 ****
 1  2  3  4  5  16  17  18  19  20  21  22  23  24 0
 3-21G
 ****
 26  27  29  30  31  37  38  41  42  43  44  45  46  47  48 0
 3-21G
 ****


