%nproc=1
%NoSave
%Mem=1900MB
#P OB98/GEN NMR

erre ene a

0 1
  C     -482.650     221.299     499.450
  O     -481.774     222.389     499.162
  P     -482.367     223.879     499.125
  C     -480.941     224.920     501.010
  O     -481.235     224.913     499.611
  C     -479.627     225.670     501.284
  O     -478.494     224.887     500.788
  C     -479.565     227.055     500.621
  O     -479.197     228.100     501.524
  C     -478.631     226.846     499.439
  O     -478.017     228.040     498.996
  C     -477.696     225.733     499.931
  N     -477.084     224.981     498.823
  C     -475.809     225.361     498.455
  O     -475.211     226.327     498.932
  N     -475.244     224.646     497.432
  C     -475.847     223.650     496.716
  O     -475.317     223.066     495.785
  C     -477.234     223.329     497.120
  C     -477.775     224.001     498.151
  O     -483.701     224.064     499.768
  O     -482.455     224.197     497.546
  H     -477.388     228.351     499.687
  H     -483.275     224.708     497.386
  H     -474.302     224.896     497.145
  H     -477.757     222.558     496.569
  H     -478.791     223.789     498.463
  H     -476.871     226.142     500.529
  H     -479.214     226.457     498.591
  H     -480.557     227.363     500.254
  H     -479.518     225.762     502.372
  H     -480.841     223.891     501.373
  H     -481.772     225.363     501.548
  P     -480.216     229.096     502.233
  C     -478.731     229.502     504.322
  O     -479.389     230.072     503.201
  O     -481.421     228.455     502.869
  O     -480.671     230.062     501.042
  H     -481.623     230.240     501.121
  H     -478.549     230.288     505.060
  H     -477.766     229.090     504.001
  H     -479.336     228.703     504.792
  H     -482.097     220.383     499.435
  H     -483.425     221.260     498.713
  H     -483.085     221.437     500.418

 3  4  5  6  7  8  9  10  11  12  13  23  28  29  30  31  32 0
 6-311+G(2d,p)
 ****
 33  34 0
 6-311+G(2d,p)
 ****
 1  2  14  15  16  17  18  19  20  21  22  24  25  26  27 0
 3-21G
 ****
 35  36  37  38  39  40  41  42  43  44  45 0
 3-21G
 ****


