%nproc=1
%NoSave
%Mem=1900MB
#P OB98/GEN NMR

erre ene a

0 1
  C      -63.064     -13.677    1369.945
  O      -64.226     -13.151    1369.335
  P      -64.094     -12.168    1368.076
  C      -63.535     -10.077    1369.454
  O      -64.462     -10.693    1368.586
  C      -63.971      -8.637    1369.773
  O      -63.848      -7.814    1368.598
  C      -65.427      -8.520    1370.213
  O      -65.589      -8.929    1371.571
  C      -65.684      -7.038    1369.970
  O      -65.186      -6.247    1371.082
  C      -64.859      -6.771    1368.711
  N      -67.775      -3.829    1365.728
  C      -67.234      -3.616    1366.949
  N      -66.495      -4.467    1367.700
  C      -66.364      -5.653    1367.070
  C      -66.879      -6.035    1365.849
  C      -67.601      -5.033    1365.146
  N      -68.104      -5.224    1363.880
  N      -66.558      -7.335    1365.553
  C      -65.848      -7.758    1366.600
  N      -65.657      -6.748    1367.510
  O      -64.790     -12.616    1366.830
  O      -62.508     -12.068    1367.838
  H      -65.733      -6.453    1371.851
  H      -62.302     -12.394    1366.937
  H      -67.401      -2.635    1367.386
  H      -65.464      -8.751    1366.716
  H      -64.314      -5.820    1368.770
  H      -66.741      -6.810    1369.875
  H      -66.071      -9.113    1369.555
  H      -63.296      -8.233    1370.543
  H      -62.557     -10.069    1368.980
  H      -68.487      -4.412    1363.411
  H      -67.747      -5.978    1363.322
  H      -63.456     -10.654    1370.383
  P      -66.578     -10.148    1371.916
  C      -68.725      -8.844    1372.454
  O      -67.635      -9.579    1372.977
  O      -65.923     -11.435    1372.294
  O      -67.464     -10.303    1370.589
  H      -67.713     -11.246    1370.479
  H      -68.388      -7.824    1372.208
  H      -69.502      -8.780    1373.214
  H      -69.126      -9.319    1371.566
  H      -63.345     -14.308    1370.763
  H      -62.456     -12.874    1370.306
  H      -62.512     -14.248    1369.228

 3  4  5  6  7  8  9  10  11  12  22  25  29  30  31  32 0
 6-311+G(2d,p)
 ****
 33  36  37 0
 6-311+G(2d,p)
 ****
 1  2  13  14  15  16  17  18  19  20  21  23  24  26 0
 3-21G
 ****
 27  28  34  35  38  39  40  41  42  43  44  45  46  47  48 0
 3-21G
 ****


