%nproc=1
%NoSave
%Mem=1900MB
#P OB98/GEN NMR

erre ene a

0 1
  C       49.855    -126.704     186.382
  O       50.751    -126.991     187.444
  H       48.833    -126.880     186.730
  H       50.047    -127.356     185.526
  H       49.950    -125.658     186.081
  P       52.324    -126.960     187.137
  C       52.832    -129.495     187.230
  O       52.650    -128.347     186.408
  C       54.163    -130.170     186.904
  O       54.152    -130.665     185.550
  C       55.352    -129.224     186.994
  O       55.706    -128.979     188.342
  C       56.377    -129.978     186.175
  O       56.990    -131.028     186.939
  C       55.503    -130.561     185.040
  N       55.546    -129.754     183.824
  C       56.651    -129.953     182.991
  O       57.519    -130.772     183.295
  N       56.752    -129.200     181.848
  C       55.827    -128.340     181.550
  N       55.993    -127.626     180.405
  C       54.638    -128.110     182.390
  C       54.562    -128.842     183.503
  O       53.231    -126.638     188.286
  O       52.455    -125.887     185.952
  H       57.491    -131.567     186.295
  H       52.586    -124.991     186.315
  H       53.891    -127.387     182.104
  H       53.718    -128.737     184.176
  H       55.825    -131.579     184.789
  H       57.172    -129.324     185.822
  H       55.127    -128.285     186.475
  H       54.288    -131.030     187.577
  H       56.828    -127.809     179.866
  H       52.001    -130.177     187.023
  H       55.294    -127.000     180.027
  H       52.799    -129.219     188.291
  P       56.230    -127.537     188.802
  C       58.702    -127.970     189.424
  O       57.793    -127.511     188.419
  O       55.910    -127.158     190.208
  O       55.586    -126.552     187.711
  H       54.615    -126.427     187.868
  H       59.704    -127.906     189.055
  H       58.477    -128.987     189.671
  H       58.604    -127.361     190.298

 6  7  8  9  10  11  12  13  14  15  16  26  30  31  32  33  35 0
 6-311+G(2d,p)
 ****
 37  38 0
 6-311+G(2d,p)
 ****
 1  2  3  4  5  17  18  19  20  21  22  23  24  25 0
 3-21G
 ****
 27  28  29  34  36  39  40  41  42  43  44  45  46 0
 3-21G
 ****


