%nproc=1
%NoSave
%Mem=1900MB
#P OB98/GEN NMR

erre ene a

0 1
  C      286.528      58.842    -168.799
  O      286.198      59.984    -169.564
  H      286.680      59.151    -167.761
  H      287.455      58.396    -169.167
  H      285.719      58.107    -168.830
  P      285.826      59.796    -171.112
  C      283.329      60.239    -170.690
  O      284.295      59.312    -171.163
  C      281.992      59.543    -170.442
  O      282.244      58.262    -169.807
  C      281.042      60.337    -169.540
  O      279.708      60.160    -170.018
  C      281.192      59.663    -168.190
  O      280.031      59.814    -167.376
  C      281.472      58.216    -168.590
  N      281.425      54.107    -165.652
  C      280.570      54.486    -166.669
  N      279.532      53.664    -166.929
  N      280.719      55.581    -167.369
  C      281.809      56.303    -167.011
  C      282.727      56.036    -166.024
  C      282.543      54.828    -165.246
  O      283.259      54.447    -164.327
  N      283.677      57.024    -165.948
  C      283.330      57.888    -166.886
  N      282.196      57.500    -167.551
  O      286.769      58.944    -171.900
  O      285.759      61.289    -171.679
  H      280.257      59.466    -166.486
  H      286.579      61.514    -172.157
  H      281.258      53.259    -165.139
  H      283.856      58.805    -167.116
  H      280.552      57.651    -168.784
  H      282.047      60.095    -167.653
  H      279.364      52.797    -166.442
  H      281.285      61.403    -169.499
  H      278.905      53.909    -167.687
  H      281.527      59.330    -171.411
  H      283.203      61.021    -171.447
  H      283.690      60.699    -169.763
  P      279.017      61.355    -170.833
  C      279.018      59.920    -172.973
  O      279.366      61.171    -172.388
  O      279.244      62.726    -170.287
  O      277.459      60.964    -170.781
  H      276.929      61.783    -170.803
  H      279.299      59.919    -174.006
  H      277.962      59.769    -172.890
  H      279.532      59.132    -172.463

 6  7  8  9  10  11  12  13  14  15  26  29  33  34 0
 6-311+G(2d,p)
 ****
 36  38  39  40  41 0
 6-311+G(2d,p)
 ****
 1  2  3  4  5  16  17  18  19  20  21  22  23  24  25 0
 3-21G
 ****
 27  28  30  31  32  35  37  42  43  44  45  46  47 0
 3-21G
 ****
 48  49 0
 3-21G
 ****


