%nproc=1
%NoSave
%Mem=1900MB
#P OB98/GEN NMR

erre ene a

0 1
  C      432.179     395.309    1054.330
  O      431.635     395.103    1055.613
  H      431.379     395.236    1053.587
  H      432.923     394.533    1054.118
  H      432.644     396.294    1054.241
  P      432.531     395.440    1056.902
  C      432.056     393.274    1058.216
  O      433.025     394.032    1057.497
  C      432.685     392.630    1059.468
  O      433.777     391.757    1059.035
  C      433.274     393.653    1060.462
  O      433.142     393.087    1061.776
  C      434.733     393.691    1060.040
  O      435.548     394.251    1061.058
  C      434.978     392.219    1059.708
  N      436.166     392.018    1058.885
  C      437.093     391.088    1059.347
  O      436.949     390.457    1060.403
  N      438.202     390.904    1058.581
  C      438.507     391.606    1057.445
  O      439.546     391.428    1056.819
  C      437.521     392.616    1057.034
  C      436.406     392.772    1057.759
  O      431.917     396.351    1057.905
  O      433.889     396.049    1056.294
  H      436.487     394.028    1060.876
  H      434.276     396.683    1056.916
  H      438.877     390.222    1058.903
  H      437.743     393.193    1056.140
  H      435.659     393.505    1057.466
  H      435.092     391.624    1060.626
  H      434.855     394.309    1059.146
  H      432.785     394.629    1060.420
  H      431.928     391.989    1059.946
  H      431.667     392.487    1057.561
  H      431.229     393.922    1058.517
  P      431.887     393.396    1062.726
  C      433.149     394.646    1064.606
  O      432.198     394.753    1063.553
  O      431.469     392.260    1063.583
  O      430.717     393.838    1061.732
  H      429.858     393.624    1062.126
  H      433.270     395.600    1065.076
  H      434.088     394.323    1064.207
  H      432.804     393.935    1065.327

 6  7  8  9  10  11  12  13  14  15  16  26  31  32  33  34  35 0
 6-311+G(2d,p)
 ****
 36  37 0
 6-311+G(2d,p)
 ****
 1  2  3  4  5  17  18  19  20  21  22  23  24  25 0
 3-21G
 ****
 27  28  29  30  38  39  40  41  42  43  44  45 0
 3-21G
 ****


