%nproc=1
%NoSave
%Mem=1900MB
#P OB98/GEN NMR

erre ene a

0 1
  C      315.458     387.533     198.010
  O      314.340     387.285     197.186
  H      315.392     388.560     198.384
  H      316.384     387.438     197.437
  H      315.470     386.849     198.862
  P      314.199     385.859     196.462
  C      314.048     386.643     194.020
  O      313.325     386.142     195.136
  C      313.536     388.024     193.609
  O      313.851     388.989     194.651
  C      314.147     388.545     192.299
  O      313.115     389.062     191.455
  C      315.052     389.682     192.751
  O      315.289     390.646     191.730
  C      314.285     390.186     193.981
  N      315.113     391.032     194.831
  C      315.665     392.165     194.226
  O      315.437     392.404     193.040
  N      316.503     392.967     194.958
  C      316.805     392.635     196.177
  N      317.662     393.458     196.839
  C      316.265     391.434     196.848
  C      315.432     390.683     196.126
  O      313.687     384.764     197.335
  O      315.653     385.559     195.863
  H      315.845     391.366     192.107
  H      315.747     384.587     195.722
  H      316.551     391.203     197.864
  H      314.986     389.781     196.532
  H      313.395     390.754     193.683
  H      316.021     389.271     193.059
  H      314.704     387.787     191.751
  H      312.441     387.985     193.547
  H      318.012     394.267     196.337
  H      313.946     385.935     193.191
  H      317.988     393.293     197.776
  H      315.103     386.721     194.299
  P      313.018     388.432     189.982
  C      313.662     390.226     188.219
  O      312.622     389.609     188.965
  O      311.704     387.523     190.054
  O      314.218     387.633     189.598
  H      311.951     386.579     190.027
  H      313.247     390.986     187.590
  H      314.152     389.491     187.615
  H      314.370     390.666     188.890

 6  7  8  9  10  11  12  13  14  15  16  26  30  31  32  33  35 0
 6-311+G(2d,p)
 ****
 37  38 0
 6-311+G(2d,p)
 ****
 1  2  3  4  5  17  18  19  20  21  22  23  24  25 0
 3-21G
 ****
 27  28  29  34  36  39  40  41  42  43  44  45  46 0
 3-21G
 ****


