%nproc=1
%NoSave
%Mem=1900MB
#P OB98/GEN NMR

erre ene a

0 1
  C      243.101    -366.657     -98.480
  O      244.323    -366.052     -98.847
  H      242.295    -365.932     -98.624
  H      243.122    -366.947     -97.427
  H      242.896    -367.533     -99.104
  P      245.650    -366.952     -98.877
  C      246.416    -367.417    -101.297
  O      246.472    -366.529    -100.185
  C      246.707    -366.650    -102.584
  O      245.601    -365.776    -102.908
  C      247.936    -365.755    -102.504
  O      249.127    -366.506    -102.600
  C      247.679    -364.813    -103.673
  O      248.066    -365.422    -104.915
  C      246.149    -364.629    -103.598
  N      245.755    -363.382    -102.945
  C      244.405    -363.049    -103.010
  O      243.568    -363.727    -103.603
  N      244.050    -361.879    -102.387
  C      244.905    -360.981    -101.821
  O      244.545    -359.904    -101.357
  C      246.322    -361.374    -101.804
  C      246.675    -362.538    -102.357
  O      245.441    -368.420     -98.708
  O      246.539    -366.349     -97.687
  H      247.700    -364.858    -105.622
  H      246.512    -366.957     -96.924
  H      243.078    -361.618    -102.435
  H      247.030    -360.693    -101.352
  H      247.716    -362.839    -102.360
  H      245.716    -364.640    -104.608
  H      248.239    -363.880    -103.584
  H      247.918    -365.173    -101.574
  H      246.811    -367.379    -103.403
  H      245.414    -367.851    -101.350
  H      247.148    -368.217    -101.147
  P      250.201    -366.455    -101.415
  C      249.964    -369.002    -101.148
  O      250.869    -367.907    -101.293
  O      249.708    -365.875    -100.130
  O      251.389    -365.566    -102.017
  H      251.512    -364.768    -101.466
  H      250.517    -369.915    -101.076
  H      249.316    -369.044    -101.998
  H      249.381    -368.868    -100.261

 6  7  8  9  10  11  12  13  14  15  16  26  31  32  33  34  35 0
 6-311+G(2d,p)
 ****
 36  37 0
 6-311+G(2d,p)
 ****
 1  2  3  4  5  17  18  19  20  21  22  23  24  25 0
 3-21G
 ****
 27  28  29  30  38  39  40  41  42  43  44  45 0
 3-21G
 ****


