%nproc=1
%NoSave
%Mem=1900MB
#P OB98/GEN NMR

erre ene a

0 1
  C      403.406     101.547      -3.447
  O      403.677     100.809      -4.620
  H      402.904     100.895      -2.726
  H      402.749     102.390      -3.676
  H      404.337     101.911      -3.004
  P      404.413     101.588      -5.813
  C      402.824     103.637      -5.933
  O      404.113     103.151      -5.578
  C      402.703     105.121      -5.594
  O      401.430     105.618      -6.095
  C      402.755     105.422      -4.087
  O      403.472     106.644      -3.885
  C      401.297     105.643      -3.733
  O      401.141     106.428      -2.555
  C      400.793     106.314      -5.009
  N      396.606     109.107      -4.837
  C      397.934     109.478      -4.731
  N      398.194     110.788      -4.551
  N      398.929     108.625      -4.799
  C      398.528     107.349      -5.008
  C      397.247     106.855      -5.120
  C      396.156     107.804      -5.023
  O      394.962     107.536      -5.086
  N      397.257     105.492      -5.292
  C      398.537     105.163      -5.288
  N      399.346     106.257      -5.124
  O      403.524     101.232      -7.097
  O      405.850     101.248      -6.013
  H      401.554     107.303      -2.719
  H      404.069     101.225      -7.909
  H      395.882     109.801      -4.767
  H      398.928     104.158      -5.396
  H      401.076     107.374      -5.062
  H      400.796     104.679      -3.575
  H      397.483     111.506      -4.523
  H      403.211     104.624      -3.501
  H      399.162     111.084      -4.480
  H      403.489     105.671      -6.130
  H      402.067     103.071      -5.383
  H      402.670     103.488      -7.009
  P      404.875     106.561      -3.108
  C      404.409     107.907      -0.939
  O      404.597     106.627      -1.529
  O      405.550     107.977      -3.431
  O      405.748     105.434      -3.561
  H      406.288     107.859      -4.053
  H      404.235     107.794       0.111
  H      403.566     108.388      -1.391
  H      405.284     108.503      -1.093

 6  7  8  9  10  11  12  13  14  15  26  29  33  34 0
 6-311+G(2d,p)
 ****
 36  38  39  40  41 0
 6-311+G(2d,p)
 ****
 1  2  3  4  5  16  17  18  19  20  21  22  23  24  25 0
 3-21G
 ****
 27  28  30  31  32  35  37  42  43  44  45  46  47 0
 3-21G
 ****
 48  49 0
 3-21G
 ****


