%nproc=1
%NoSave
%Mem=1900MB
#P OB98/GEN NMR

erre ene a

0 1
  C      -45.308     670.852     -93.365
  O      -44.705     670.838     -92.090
  H      -45.410     669.820     -93.716
  H      -44.673     671.400     -94.066
  H      -46.301     671.311     -93.332
  P      -44.843     672.131     -91.155
  C      -42.690     673.540     -90.950
  O      -43.854     673.265     -91.719
  C      -41.487     672.727     -91.435
  O      -41.494     672.659     -92.879
  C      -40.150     673.354     -91.025
  O      -39.690     672.972     -89.741
  C      -39.215     672.843     -92.119
  O      -38.649     671.568     -91.771
  C      -40.134     672.709     -93.340
  N      -37.211     674.858     -96.948
  C      -36.893     673.831     -96.072
  N      -35.632     673.353     -96.150
  N      -37.739     673.344     -95.201
  C      -38.927     673.995     -95.169
  C      -39.344     675.036     -95.975
  C      -38.430     675.519     -96.987
  O      -38.665     676.411     -97.789
  N      -40.605     675.468     -95.623
  C      -40.905     674.740     -94.565
  N      -39.953     673.786     -94.299
  O      -44.118     671.685     -89.795
  O      -46.248     672.580     -90.885
  H      -39.383     670.934     -91.661
  H      -44.543     672.132     -89.037
  H      -36.528     675.169     -97.616
  H      -41.815     674.847     -93.981
  H      -39.951     671.770     -93.873
  H      -38.375     673.529     -92.264
  H      -34.919     673.747     -96.743
  H      -40.195     674.452     -91.101
  H      -35.307     672.730     -95.406
  H      -41.578     671.699     -91.058
  H      -42.931     673.274     -89.918
  H      -42.459     674.612     -90.975
  P      -38.858     673.995     -88.832
  C      -36.247     673.780     -88.564
  O      -37.359     674.068     -89.389
  O      -38.699     673.203     -87.451
  O      -39.483     675.337     -88.633
  H      -39.359     673.506     -86.798
  H      -35.345     673.888     -89.130
  H      -36.323     672.776     -88.201
  H      -36.232     674.458     -87.736

 6  7  8  9  10  11  12  13  14  15  26  29  33  34 0
 6-311+G(2d,p)
 ****
 36  38  39  40  41 0
 6-311+G(2d,p)
 ****
 1  2  3  4  5  16  17  18  19  20  21  22  23  24  25 0
 3-21G
 ****
 27  28  30  31  32  35  37  42  43  44  45  46  47 0
 3-21G
 ****
 48  49 0
 3-21G
 ****


