%nproc=1
%NoSave
%Mem=1900MB
#P OB98/GEN NMR

erre ene a

0 1
  C     -169.056     328.843     417.702
  O     -170.344     328.272     417.862
  P     -171.298     328.020     416.599
  C     -171.976     330.544     416.277
  O     -172.361     329.203     416.540
  C     -173.228     331.378     415.984
  O     -173.880     330.895     414.786
  C     -174.232     331.296     417.131
  O     -174.064     332.394     418.026
  C     -175.565     331.312     416.411
  O     -175.934     332.656     416.056
  C     -175.244     330.500     415.137
  N     -175.275     329.023     415.225
  C     -176.378     328.393     415.800
  O     -177.351     328.997     416.236
  N     -176.298     327.027     415.900
  C     -175.267     326.256     415.437
  O     -175.091     325.083     415.740
  C     -174.284     326.942     414.600
  C     -174.318     328.275     414.553
  O     -172.170     326.762     417.063
  O     -170.594     327.781     415.303
  H     -176.907     332.670     415.922
  H     -171.813     325.938     416.676
  H     -177.019     326.579     416.444
  H     -173.525     326.352     414.091
  H     -173.571     328.815     413.969
  H     -175.891     330.788     414.303
  H     -176.362     330.938     417.053
  H     -174.137     330.347     417.668
  H     -172.927     332.420     415.806
  H     -171.290     330.569     415.429
  H     -171.442     330.949     417.142
  P     -174.305     332.183     419.594
  C     -176.829     332.131     419.156
  O     -175.778     332.753     419.861
  O     -173.233     332.717     420.484
  O     -174.470     330.597     419.726
  H     -173.614     330.195     420.015
  H     -177.781     332.484     419.558
  H     -176.781     331.043     419.258
  H     -176.778     332.410     418.095
  H     -168.582     328.928     418.658
  H     -169.148     329.814     417.263
  H     -168.465     328.218     417.065

 3  4  5  6  7  8  9  10  11  12  13  23  28  29  30  31  32 0
 6-311+G(2d,p)
 ****
 33  34 0
 6-311+G(2d,p)
 ****
 1  2  14  15  16  17  18  19  20  21  22  24  25  26  27 0
 3-21G
 ****
 35  36  37  38  39  40  41  42  43  44  45 0
 3-21G
 ****


