%nproc=1
%NoSave
%Mem=1900MB
#P OB98/GEN NMR

erre ene a

0 1
  C      646.083     260.586    -582.014
  O      644.852     261.324    -581.953
  P      643.634     260.759    -582.814
  C      641.529     261.050    -581.306
  O      642.528     260.163    -581.800
  C      640.263     260.259    -580.974
  O      639.718     259.601    -582.136
  C      640.489     259.143    -579.957
  O      640.630     259.668    -578.646
  C      639.232     258.308    -580.169
  O      638.114     258.897    -579.488
  C      639.025     258.412    -581.689
  N      637.857     253.777    -583.555
  C      637.133     254.696    -582.877
  N      637.509     255.901    -582.415
  C      638.799     256.150    -582.729
  C      639.666     255.309    -583.417
  C      639.149     254.071    -583.840
  N      639.905     253.144    -584.522
  N      640.907     255.909    -583.542
  C      640.799     257.060    -582.918
  N      639.541     257.255    -582.417
  O      644.236     259.449    -583.509
  O      643.112     261.716    -583.826
  H      637.304     258.462    -579.834
  H      644.373     259.609    -584.463
  H      636.101     254.409    -582.677
  H      641.604     257.774    -582.794
  H      637.962     258.512    -581.965
  H      639.339     257.269    -579.798
  H      641.383     258.566    -580.227
  H      639.509     260.962    -580.594
  H      641.303     261.815    -582.047
  H      639.482     252.252    -584.727
  H      640.892     253.317    -584.669
  H      641.911     261.568    -580.430
  P      642.072     259.524    -577.947
  C      641.654     262.034    -577.620
  O      642.614     261.031    -577.859
  O      642.941     258.890    -579.126
  O      642.069     258.762    -576.659
  H      642.797     259.356    -579.970
  H      642.165     263.005    -577.553
  H      641.138     261.839    -576.669
  H      640.928     262.070    -578.439
  H      646.816     261.064    -581.398
  H      646.431     260.556    -583.025
  H      645.918     259.588    -581.664

 3  4  5  6  7  8  9  10  11  12  22  25  29  30  31  32 0
 6-311+G(2d,p)
 ****
 33  36  37 0
 6-311+G(2d,p)
 ****
 1  2  13  14  15  16  17  18  19  20  21  23  24  26 0
 3-21G
 ****
 27  28  34  35  38  39  40  41  42  43  44  45  46  47  48 0
 3-21G
 ****


