%nproc=1
%NoSave
%Mem=1900MB
#P OB98/GEN NMR

erre ene a

0 1
  C     -104.164    -105.676      65.664
  O     -105.543    -105.395      65.525
  H     -104.011    -106.751      65.525
  H     -103.827    -105.406      66.668
  H     -103.580    -105.139      64.913
  P     -106.032    -103.869      65.544
  C     -107.080    -103.967      63.188
  O     -107.310    -103.763      64.576
  C     -108.388    -104.313      62.467
  O     -108.796    -105.650      62.863
  C     -109.544    -103.354      62.786
  O     -110.329    -103.160      61.610
  C     -110.350    -104.113      63.826
  O     -111.722    -103.717      63.838
  C     -110.135    -105.565      63.394
  N     -113.492    -107.541      66.614
  C     -113.682    -106.692      65.543
  N     -114.948    -106.294      65.295
  N     -112.711    -106.266      64.775
  C     -111.496    -106.766      65.121
  C     -111.180    -107.609      66.156
  C     -112.260    -108.058      67.012
  O     -112.153    -108.795      67.989
  N     -109.830    -107.874      66.196
  C     -109.332    -107.185      65.184
  N     -110.303    -106.486      64.507
  O     -104.959    -102.860      65.273
  O     -106.665    -103.675      66.999
  H     -112.188    -104.328      64.451
  H     -106.070    -103.157      67.573
  H     -114.274    -107.829      67.180
  H     -108.289    -107.156      64.901
  H     -110.839    -105.878      62.611
  H     -109.930    -103.934      64.823
  H     -115.746    -106.602      65.832
  H     -109.192    -102.394      63.156
  H     -115.119    -105.694      64.497
  H     -108.195    -104.346      61.387
  H     -106.367    -104.790      63.073
  H     -106.643    -103.056      62.755
  P     -109.900    -102.015      60.568
  C     -109.858    -103.455      58.437
  O     -110.493    -102.384      59.120
  O     -108.453    -101.649      60.579
  O     -110.811    -100.768      61.013
  H     -110.307     -99.946      60.869
  H     -110.335    -103.608      57.492
  H     -109.934    -104.347      59.023
  H     -108.826    -103.217      58.282

 6  7  8  9  10  11  12  13  14  15  26  29  33  34 0
 6-311+G(2d,p)
 ****
 36  38  39  40  41 0
 6-311+G(2d,p)
 ****
 1  2  3  4  5  16  17  18  19  20  21  22  23  24  25 0
 3-21G
 ****
 27  28  30  31  32  35  37  42  43  44  45  46  47 0
 3-21G
 ****
 48  49 0
 3-21G
 ****


