%nproc=1
%NoSave
%Mem=1900MB
#P OB98/GEN NMR

erre ene a

0 1
  C     -894.390     -92.270     588.270
  O     -893.800     -90.989     587.978
  P     -894.530     -90.131     586.826
  C     -895.300     -88.078     588.227
  O     -895.690     -89.244     587.504
  C     -896.420     -87.026     588.231
  O     -896.320     -86.164     587.069
  C     -897.820     -87.620     588.277
  O     -898.650     -86.738     589.025
  C     -898.250     -87.558     586.803
  O     -899.680     -87.612     586.683
  C     -897.590     -86.218     586.393
  N     -897.450     -86.091     584.945
  C     -898.620     -85.931     584.190
  O     -899.720     -85.981     584.744
  N     -898.510     -85.771     582.844
  C     -897.350     -85.800     582.274
  N     -897.320     -85.639     580.923
  C     -896.090     -86.028     583.013
  C     -896.220     -86.163     584.332
  O     -895.330     -91.218     585.970
  O     -893.570     -89.366     585.967
  H     -899.980     -88.505     586.959
  H     -895.150     -91.106     585.032
  H     -895.160     -86.080     582.485
  H     -895.360     -86.323     584.965
  H     -898.210     -85.370     586.744
  H     -897.810     -88.384     586.251
  H     -897.870     -88.637     588.688
  H     -896.280     -86.394     589.120
  H     -898.210     -85.480     580.450
  H     -894.410     -87.652     587.777
  H     -896.480     -85.663     580.374
  H     -895.030     -88.378     589.249
  P     -898.690     -86.924     590.610
  C     -898.280     -84.398     590.684
  O     -897.900     -85.648     591.178
  O     -897.620     -88.101     590.841
  O     -900.000     -87.233     591.266
  H     -897.610     -88.336     591.776
  H     -897.750     -83.601     591.246
  H     -899.360     -84.237     590.788
  H     -898.000     -84.299     589.620
  H     -893.831     -92.752     589.044
  H     -894.377     -92.878     587.389
  H     -895.401     -92.132     588.593

 3  4  5  6  7  8  9  10  11  12  13  21  23  27  28  29  30  32 0
 6-311+G(2d,p)
 ****
 34  35 0
 6-311+G(2d,p)
 ****
 1  2  14  15  16  17  18  19  20  22  24  25  26 0
 3-21G
 ****
 31  33  36  37  38  39  40  41  42  43  44  45  46 0
 3-21G
 ****


