%nproc=1
%NoSave
%Mem=1900MB
#P OB98/GEN NMR

erre ene a

0 1
  C     -362.509    -725.679    -237.884
  O     -361.265    -725.236    -237.368
  P     -360.257    -724.383    -238.267
  C     -359.186    -723.330    -236.187
  O     -358.954    -724.059    -237.384
  C     -357.869    -723.040    -235.442
  O     -357.257    -724.291    -235.051
  C     -356.850    -722.257    -236.285
  O     -356.195    -721.343    -235.394
  C     -355.885    -723.339    -236.738
  O     -354.605    -722.815    -237.097
  C     -355.898    -724.269    -235.531
  N     -355.419    -725.604    -235.847
  C     -354.055    -725.860    -235.650
  O     -353.294    -724.940    -235.349
  N     -353.599    -727.136    -235.824
  C     -354.389    -728.042    -236.309
  N     -353.911    -729.323    -236.387
  C     -355.768    -727.756    -236.755
  C     -356.224    -726.541    -236.470
  O     -360.857    -723.198    -238.946
  O     -359.701    -725.442    -239.347
  H     -359.837    -725.075    -240.254
  H     -354.047    -723.549    -237.424
  H     -356.342    -728.498    -237.286
  H     -357.229    -726.231    -236.731
  H     -355.274    -723.860    -234.723
  H     -356.297    -723.852    -237.618
  H     -357.300    -721.705    -237.106
  H     -358.110    -722.481    -234.537
  H     -352.982    -729.489    -236.030
  H     -359.827    -723.936    -235.543
  H     -354.540    -730.124    -236.457
  H     -359.716    -722.407    -236.412
  P     -355.942    -719.841    -235.909
  C     -356.552    -718.709    -233.631
  O     -355.558    -718.943    -234.625
  O     -357.449    -719.349    -236.206
  O     -355.111    -719.669    -237.136
  H     -357.419    -718.632    -236.876
  H     -356.125    -718.035    -232.887
  H     -356.820    -719.651    -233.158
  H     -357.425    -718.254    -234.078
  H     -363.032    -726.229    -237.130
  H     -362.339    -726.309    -238.732
  H     -363.094    -724.833    -238.179

 3  4  5  6  7  8  9  10  11  12  13  24  27  28  29  30  32 0
 6-311+G(2d,p)
 ****
 34  35 0
 6-311+G(2d,p)
 ****
 1  2  14  15  16  17  18  19  20  21  22  23  25  26 0
 3-21G
 ****
 31  33  36  37  38  39  40  41  42  43  44  45  46 0
 3-21G
 ****


