%nproc=1
%NoSave
%Mem=1900MB
#P OB98/GEN NMR

erre ene a

0 1
  C     -108.552    -323.384     210.975
  O     -107.890    -323.963     212.093
  P     -107.594    -325.539     212.067
  C     -105.031    -325.274     211.777
  O     -106.248    -325.747     211.216
  C     -103.920    -326.314     211.644
  O     -104.287    -327.497     212.407
  C     -103.644    -326.771     210.208
  O     -102.243    -327.060     210.116
  C     -104.427    -328.065     210.103
  O     -103.952    -328.899     209.046
  C     -104.219    -328.626     211.507
  N     -105.016    -333.378     213.217
  C     -103.884    -332.679     212.994
  N     -103.749    -331.418     212.542
  C     -104.955    -330.870     212.302
  C     -106.193    -331.470     212.444
  C     -106.203    -332.789     212.930
  N     -107.357    -333.500     213.162
  N     -107.199    -330.600     212.074
  C     -106.579    -329.497     211.714
  N     -105.224    -329.607     211.861
  O     -108.742    -326.096     211.099
  O     -107.629    -326.212     213.394
  H     -103.820    -328.345     208.255
  H     -109.376    -326.633     211.609
  H     -102.958    -333.203     213.222
  H     -107.058    -328.602     211.344
  H     -103.234    -329.093     211.625
  H     -105.485    -327.847     209.908
  H     -103.931    -326.040     209.443
  H     -103.011    -325.906     212.098
  H     -105.192    -325.067     212.839
  H     -107.288    -334.384     213.641
  H     -108.247    -333.009     213.134
  H     -104.738    -324.343     211.282
  P     -101.472    -326.513     208.821
  C     -100.263    -324.668     210.184
  O     -101.126    -324.979     209.102
  O     -102.622    -326.447     207.708
  O     -100.333    -327.374     208.382
  H     -102.232    -326.554     206.820
  H      -99.677    -323.787     209.924
  H      -99.585    -325.493     210.414
  H     -100.870    -324.447     211.071
  H     -108.677    -322.334     211.139
  H     -109.511    -323.843     210.852
  H     -107.966    -323.540     210.093

 3  4  5  6  7  8  9  10  11  12  22  25  29  30  31  32 0
 6-311+G(2d,p)
 ****
 33  36  37 0
 6-311+G(2d,p)
 ****
 1  2  13  14  15  16  17  18  19  20  21  23  24  26 0
 3-21G
 ****
 27  28  34  35  38  39  40  41  42  43  44  45  46  47  48 0
 3-21G
 ****


