%nproc=1
%NoSave
%Mem=1900MB
#P OB98/GEN NMR

erre ene a

0 1
  C      421.212      54.947     586.830
  O      420.369      54.369     587.801
  H      420.749      54.815     585.846
  H      422.184      54.446     586.819
  H      421.342      56.016     587.015
  P      420.824      54.381     589.342
  C      419.829      56.717     589.718
  O      421.017      55.937     589.716
  C      419.896      57.825     590.770
  O      420.824      58.857     590.329
  C      418.544      58.499     591.046
  O      418.337      58.609     592.458
  C      418.711      59.889     590.448
  O      417.846      60.855     591.035
  C      420.213      60.119     590.662
  N      420.719      61.213     589.850
  C      421.239      62.309     590.547
  O      421.255      62.311     591.783
  N      421.676      63.401     589.840
  C      421.560      63.413     588.546
  N      421.987      64.535     587.908
  C      420.994      62.291     587.775
  C      420.598      61.231     588.480
  O      421.993      53.505     589.652
  O      419.507      53.982     590.160
  H      416.924      60.663     590.754
  H      419.774      53.628     591.040
  H      420.911      62.357     586.698
  H      420.168      60.361     588.002
  H      420.427      60.333     591.718
  H      418.488      59.849     589.375
  H      417.700      57.973     590.603
  H      420.324      57.405     591.690
  H      422.357      65.285     588.478
  H      418.976      56.056     589.910
  H      421.922      64.672     586.909
  H      419.714      57.171     588.728
  P      417.110      57.763     593.061
  C      418.129      55.483     592.354
  O      417.027      56.372     592.265
  O      415.820      58.577     592.562
  O      417.144      57.652     594.548
  H      415.395      59.014     593.320
  H      417.927      54.606     591.775
  H      418.283      55.208     593.376
  H      419.007      55.965     591.978

 6  7  8  9  10  11  12  13  14  15  16  26  30  31  32  33  35 0
 6-311+G(2d,p)
 ****
 37  38 0
 6-311+G(2d,p)
 ****
 1  2  3  4  5  17  18  19  20  21  22  23  24  25 0
 3-21G
 ****
 27  28  29  34  36  39  40  41  42  43  44  45  46 0
 3-21G
 ****


