%nproc=1
%NoSave
%Mem=1900MB
#P OB98/GEN NMR

erre ene a

0 1
  C     -235.081     284.699     189.830
  O     -234.061     285.438     189.142
  P     -233.678     284.918     187.671
  C     -231.255     285.696     188.230
  O     -232.279     285.614     187.251
  C     -230.562     287.057     188.142
  O     -231.369     288.116     188.711
  C     -229.241     287.112     188.906
  O     -228.217     286.425     188.203
  C     -229.041     288.633     189.015
  O     -228.512     289.149     187.775
  C     -230.476     289.128     189.227
  N     -230.202     292.574     192.991
  C     -229.804     292.626     191.709
  N     -229.909     291.666     190.765
  C     -230.514     290.561     191.272
  C     -230.987     290.380     192.556
  C     -230.803     291.450     193.450
  N     -231.219     291.407     194.770
  N     -231.550     289.133     192.699
  C     -231.394     288.556     191.520
  N     -230.789     289.396     190.616
  O     -234.751     285.640     186.729
  O     -233.708     283.433     187.527
  H     -228.133     290.037     187.966
  H     -235.393     284.983     186.405
  H     -229.319     293.550     191.393
  H     -231.712     287.552     191.272
  H     -230.672     290.051     188.672
  H     -228.337     288.904     189.814
  H     -229.360     286.683     189.907
  H     -230.386     287.294     187.076
  H     -230.519     284.902     188.086
  H     -230.978     292.192     195.362
  H     -231.582     290.543     195.139
  H     -231.706     285.551     189.214
  P     -227.578     285.120     188.891
  C     -225.256     286.159     188.577
  O     -226.089     285.053     188.282
  O     -228.331     283.946     188.108
  O     -227.687     285.077     190.385
  H     -228.360     284.110     187.137
  H     -224.271     285.970     188.132
  H     -225.136     286.274     189.657
  H     -225.671     287.071     188.146
  H     -235.250     285.135     190.792
  H     -234.767     283.683     189.949
  H     -235.987     284.728     189.262

 3  4  5  6  7  8  9  10  11  12  22  25  29  30  31  32 0
 6-311+G(2d,p)
 ****
 33  36  37 0
 6-311+G(2d,p)
 ****
 1  2  13  14  15  16  17  18  19  20  21  23  24  26 0
 3-21G
 ****
 27  28  34  35  38  39  40  41  42  43  44  45  46  47  48 0
 3-21G
 ****


