%nproc=1
%NoSave
%Mem=1900MB
#P OB98/GEN NMR

erre ene a

0 1
  C     -409.404     622.179      49.563
  O     -409.252     620.777      49.691
  H     -408.784     622.521      48.730
  H     -409.068     622.679      50.475
  H     -410.444     622.437      49.356
  P     -410.135     620.000      50.785
  C     -411.087     618.013      49.461
  O     -410.096     618.443      50.385
  C     -410.464     617.106      48.399
  O     -409.604     617.905      47.548
  C     -409.624     615.965      48.979
  O     -409.820     614.804      48.170
  C     -408.198     616.462      48.817
  O     -407.259     615.392      48.724
  C     -408.294     617.296      47.543
  N     -403.675     618.335      45.784
  C     -404.476     617.227      45.590
  N     -403.963     616.231      44.831
  N     -405.674     617.103      46.095
  C     -406.069     618.179      46.819
  C     -405.370     619.326      47.090
  C     -404.037     619.450      46.534
  O     -403.273     620.402      46.689
  N     -406.095     620.179      47.892
  C     -407.232     619.536      48.100
  N     -407.257     618.315      47.485
  O     -411.507     620.548      51.008
  O     -409.245     620.059      52.112
  H     -407.505     614.856      47.943
  H     -409.564     620.761      52.710
  H     -402.755     618.372      45.380
  H     -408.054     619.908      48.696
  H     -408.202     616.690      46.636
  H     -407.924     617.085      49.679
  H     -403.057     616.265      44.397
  H     -409.865     615.741      50.021
  H     -404.544     615.416      44.655
  H     -411.268     616.718      47.759
  H     -411.519     618.894      48.984
  H     -411.875     617.475      49.996
  P     -410.250     613.429      48.881
  C     -412.612     613.699      47.891
  O     -411.508     612.829      48.086
  O     -410.409     613.492      50.364
  O     -409.065     612.426      48.468
  H     -408.953     611.768      49.177
  H     -413.380     613.185      47.352
  H     -412.297     614.556      47.333
  H     -412.991     614.013      48.841

 6  7  8  9  10  11  12  13  14  15  26  29  33  34 0
 6-311+G(2d,p)
 ****
 36  38  39  40  41 0
 6-311+G(2d,p)
 ****
 1  2  3  4  5  16  17  18  19  20  21  22  23  24  25 0
 3-21G
 ****
 27  28  30  31  32  35  37  42  43  44  45  46  47 0
 3-21G
 ****
 48  49 0
 3-21G
 ****


