%nproc=1
%NoSave
%Mem=1900MB
#P OB98/GEN NMR

erre ene a

0 1
  C      136.268    -896.874    -760.251
  O      137.256    -895.974    -760.697
  H      135.455    -896.914    -761.006
  H      135.842    -896.564    -759.300
  H      136.706    -897.884    -760.162
  P      138.489    -895.654    -759.728
  C      140.283    -895.224    -761.540
  O      139.811    -896.084    -760.516
  C      139.877    -895.754    -762.921
  O      138.419    -895.734    -763.043
  C      140.463    -894.924    -764.106
  O      140.604    -895.814    -765.205
  C      139.306    -893.944    -764.367
  O      139.437    -893.294    -765.588
  C      138.091    -894.904    -764.194
  N      136.850    -894.154    -764.001
  C      136.122    -893.884    -765.166
  O      136.543    -894.264    -766.267
  N      134.928    -893.204    -765.063
  C      134.556    -892.754    -763.883
  N      133.395    -892.064    -763.849
  C      135.322    -892.964    -762.636
  C      136.474    -893.674    -762.780
  O      138.372    -896.174    -758.329
  O      138.575    -894.044    -759.733
  H      139.556    -893.934    -766.313
  H      138.228    -893.674    -758.897
  H      134.976    -892.554    -761.716
  H      137.096    -893.874    -761.920
  H      137.996    -895.544    -765.052
  H      139.271    -893.154    -763.590
  H      141.397    -894.424    -763.861
  H      140.170    -896.794    -763.008
  H      132.909    -891.924    -764.724
  H      141.392    -895.194    -761.460
  H      133.023    -891.654    -763.004
  H      139.873    -894.224    -761.407
  P      141.940    -896.694    -765.399
  C      140.877    -899.054    -765.670
  O      141.659    -898.174    -764.832
  O      143.175    -896.094    -764.859
  O      142.063    -896.914    -766.991
  H      142.988    -897.014    -767.226
  H      140.762    -900.000    -765.184
  H      141.377    -899.192    -766.606
  H      139.913    -898.621    -765.840

 6  7  8  9  10  11  12  13  14  15  16  26  30  31  32  33  35 0
 6-311+G(2d,p)
 ****
 37  38 0
 6-311+G(2d,p)
 ****
 1  2  3  4  5  17  18  19  20  21  22  23  24  25 0
 3-21G
 ****
 27  28  29  34  36  39  40  41  42  43  44  45  46 0
 3-21G
 ****


