%nproc=1
%NoSave
%Mem=1900MB
#P OB98/GEN NMR

erre ene a

0 1
  C      245.217    -220.476    -160.801
  O      245.618    -220.615    -159.449
  P      247.094    -220.101    -159.069
  C      246.468    -217.737    -158.156
  O      247.059    -218.506    -159.192
  C      247.561    -217.049    -157.338
  O      248.432    -216.290    -158.200
  C      247.040    -216.071    -156.292
  O      246.634    -216.763    -155.125
  C      248.252    -215.172    -156.084
  O      249.201    -215.787    -155.190
  C      248.823    -215.072    -157.509
  N      249.883    -210.289    -158.755
  C      250.492    -211.125    -157.837
  N      251.567    -210.624    -157.191
  N      250.087    -212.339    -157.578
  C      248.992    -212.701    -158.291
  C      248.293    -211.961    -159.213
  C      248.784    -210.639    -159.529
  O      248.342    -209.899    -160.401
  N      247.223    -212.659    -159.710
  C      247.297    -213.829    -159.109
  N      248.363    -213.915    -158.254
  O      247.972    -220.573    -160.317
  O      247.627    -220.609    -157.765
  H      249.588    -216.568    -155.624
  H      248.443    -221.403    -160.117
  H      250.252    -209.371    -158.923
  H      246.617    -214.650    -159.276
  H      249.918    -215.037    -157.511
  H      247.982    -214.210    -155.641
  H      251.922    -209.689    -157.320
  H      246.210    -215.483    -156.699
  H      252.023    -211.218    -156.510
  H      248.165    -217.833    -156.861
  H      245.889    -218.395    -157.504
  H      245.795    -216.995    -158.599
  P      245.414    -216.147    -154.285
  C      243.872    -218.160    -154.850
  O      244.067    -216.758    -154.891
  O      245.385    -214.615    -154.749
  O      245.560    -216.266    -152.804
  H      245.135    -214.050    -153.993
  H      242.802    -218.364    -154.786
  H      244.375    -218.610    -153.989
  H      244.267    -218.602    -155.767
  H      244.223    -220.853    -160.919
  H      245.884    -221.028    -161.430
  H      245.241    -219.442    -161.076

 3  4  5  6  7  8  9  10  11  12  23  26  30  31 0
 6-311+G(2d,p)
 ****
 33  35  36  37  38 0
 6-311+G(2d,p)
 ****
 1  2  13  14  15  16  17  18  19  20  21  22  24  25 0
 3-21G
 ****
 27  28  29  32  34  39  40  41  42  43  44  45  46  47  48  49 0
 3-21G
 ****


