%nproc=1
%NoSave
%Mem=1900MB
#P OB98/GEN NMR

erre ene a

0 1
  C      216.530    -313.789     970.260
  O      217.912    -313.803     969.983
  H      216.202    -314.810     970.489
  H      215.978    -313.436     969.384
  H      216.305    -313.153     971.121
  P      218.704    -312.409     969.907
  C      220.255    -313.039     971.875
  O      219.269    -312.119     971.379
  C      221.662    -312.592     971.448
  O      222.018    -311.375     972.190
  C      222.761    -313.639     971.731
  O      223.759    -313.481     970.719
  C      223.281    -313.191     973.075
  O      224.539    -313.755     973.353
  C      223.242    -311.672     972.906
  N      223.306    -310.966     974.181
  C      224.530    -310.977     974.844
  O      225.525    -311.582     974.419
  N      224.576    -310.317     976.042
  C      223.519    -309.706     976.660
  O      223.608    -309.163     977.754
  C      222.245    -309.757     975.940
  C      222.193    -310.370     974.751
  O      217.947    -311.267     969.298
  O      220.032    -312.751     969.074
  H      224.497    -314.738     973.313
  H      220.326    -311.970     968.580
  H      225.462    -310.317     976.529
  H      221.383    -309.303     976.393
  H      221.257    -310.423     974.184
  H      224.083    -311.327     972.281
  H      222.604    -313.498     973.881
  H      222.375    -314.663     971.729
  H      221.640    -312.315     970.385
  H      220.032    -314.021     971.452
  H      220.188    -313.084     972.968
  P      224.258    -314.711     969.794
  C      222.629    -314.264     967.828
  O      223.022    -315.174     968.861
  O      224.906    -315.817     970.550
  O      225.281    -314.044     968.747
  H      225.930    -314.714     968.470
  H      221.807    -314.678     967.282
  H      223.452    -314.101     967.164
  H      222.334    -313.333     968.266

 6  7  8  9  10  11  12  13  14  15  16  26  31  32  33  34  35 0
 6-311+G(2d,p)
 ****
 36  37 0
 6-311+G(2d,p)
 ****
 1  2  3  4  5  17  18  19  20  21  22  23  24  25 0
 3-21G
 ****
 27  28  29  30  38  39  40  41  42  43  44  45 0
 3-21G
 ****


