%nproc=1
%NoSave
%Mem=1900MB
#P OB98/GEN NMR

erre ene a

0 1
  C     -906.378    1830.541     829.322
  O     -905.985    1829.747     828.203
  P     -904.449    1829.293     828.143
  C     -904.394    1829.536     825.550
  O     -904.194    1828.698     826.662
  C     -903.958    1828.842     824.270
  O     -902.585    1828.457     824.367
  C     -904.729    1827.561     823.936
  O     -906.018    1827.837     823.449
  C     -903.764    1826.909     822.955
  O     -903.931    1827.519     821.649
  C     -902.372    1827.278     823.546
  N     -899.485    1823.046     823.505
  C     -899.887    1823.869     822.527
  N     -900.683    1824.975     822.585
  C     -901.042    1825.174     823.857
  C     -900.733    1824.419     824.987
  C     -899.938    1823.309     824.787
  N     -899.509    1822.470     825.780
  N     -901.331    1824.948     826.115
  C     -901.989    1826.003     825.679
  N     -901.831    1826.192     824.358
  O     -904.431    1827.983     829.073
  O     -903.436    1830.318     828.580
  H     -904.883    1827.444     821.422
  H     -903.573    1827.911     829.548
  H     -899.521    1823.630     821.525
  H     -902.571    1826.678     826.339
  H     -901.660    1827.518     822.762
  H     -903.955    1825.814     822.828
  H     -904.796    1826.920     824.851
  H     -904.079    1829.565     823.419
  H     -903.814    1830.468     825.683
  H     -899.040    1821.596     825.537
  H     -899.933    1822.584     826.685
  H     -905.465    1829.829     825.495
  P     -907.268    1827.314     824.294
  C     -908.116    1826.497     822.021
  O     -908.439    1827.154     823.217
  O     -907.679    1828.634     825.113
  O     -906.991    1826.091     825.126
  H     -907.771    1829.402     824.514
  H     -909.013    1826.441     821.394
  H     -907.747    1825.489     822.228
  H     -907.362    1827.058     821.460
  H     -907.419    1830.776     829.244
  H     -905.808    1831.446     829.335
  H     -906.202    1829.996     830.226

 3  4  5  6  7  8  9  10  11  12  22  25  29  30  31  32 0
 6-311+G(2d,p)
 ****
 33  36  37 0
 6-311+G(2d,p)
 ****
 1  2  13  14  15  16  17  18  19  20  21  23  24  26 0
 3-21G
 ****
 27  28  34  35  38  39  40  41  42  43  44  45  46  47  48 0
 3-21G
 ****


