%nproc=1
%NoSave
%Mem=1900MB
#P OB98/GEN NMR

erre ene a

0 1
  C      -86.862    -889.670     306.749
  O      -86.369    -890.720     305.931
  P      -87.466    -891.640     305.200
  C      -89.048    -893.570     305.992
  O      -88.009    -892.670     306.326
  C      -88.714    -894.960     306.534
  O      -88.567    -894.930     307.975
  C      -89.746    -896.030     306.240
  O      -89.583    -896.530     304.923
  C      -89.464    -897.050     307.326
  O      -88.353    -897.910     306.962
  C      -89.113    -896.150     308.526
  N      -91.157    -897.070     313.055
  C      -90.076    -897.680     312.431
  N      -89.429    -898.620     313.143
  N      -89.681    -897.370     311.234
  C      -90.434    -896.400     310.646
  C      -91.526    -895.740     311.152
  C      -91.937    -896.050     312.506
  O      -92.812    -895.480     313.136
  N      -92.039    -894.840     310.243
  C      -91.243    -894.940     309.202
  N      -90.236    -895.860     309.403
  O      -86.577    -892.570     304.238
  O      -88.543    -890.900     304.473
  H      -88.271    -898.600     307.616
  H      -86.589    -892.210     303.327
  H      -91.423    -897.340     313.997
  H      -91.333    -894.370     308.308
  H      -88.323    -896.600     309.152
  H      -90.320    -897.730     307.503
  H      -89.709    -898.930     314.059
  H      -90.770    -895.620     306.367
  H      -88.642    -899.090     312.691
  H      -87.727    -895.250     306.135
  H      -89.143    -893.630     304.902
  H      -89.994    -893.210     306.416
  P      -90.918    -896.880     304.091
  C      -92.517    -898.920     303.902
  O      -91.338    -898.380     304.470
  O      -90.385    -897.010     302.574
  O      -92.008    -895.850     304.188
  H      -91.056    -896.650     301.971
  H      -92.399    -900.000     303.806
  H      -92.729    -898.480     302.917
  H      -93.360    -898.700     304.583
  H      -86.040    -889.135     307.176
  H      -87.465    -890.081     307.531
  H      -87.452    -889.003     306.156

 3  4  5  6  7  8  9  10  11  12  23  26  30  31 0
 6-311+G(2d,p)
 ****
 33  35  36  37  38 0
 6-311+G(2d,p)
 ****
 1  2  13  14  15  16  17  18  19  20  21  22  24  25 0
 3-21G
 ****
 27  28  29  32  34  39  40  41  42  43  44  45  46  47  48  49 0
 3-21G
 ****


