%nproc=1
%NoSave
%Mem=1900MB
#P OB98/GEN NMR

erre ene a

0 1
  C     -302.191     241.771     -51.777
  O     -302.721     240.527     -52.191
  H     -302.838     242.187     -51.002
  H     -302.159     242.466     -52.621
  H     -301.188     241.634     -51.366
  P     -301.896     239.736     -53.317
  C     -300.720     238.137     -51.656
  O     -300.579     239.228     -52.556
  C     -299.438     237.308     -51.614
  O     -299.103     236.829     -52.929
  C     -298.213     238.073     -51.128
  O     -298.192     238.148     -49.713
  C     -297.096     237.191     -51.662
  O     -296.917     236.054     -50.795
  C     -297.657     236.726     -53.020
  N     -293.963     237.283     -56.541
  C     -294.032     236.525     -55.426
  N     -295.027     236.461     -54.515
  C     -296.031     237.289     -54.843
  C     -296.100     238.123     -55.950
  C     -295.007     238.095     -56.831
  N     -294.943     238.863     -57.974
  N     -297.283     238.829     -55.956
  C     -297.941     238.390     -54.901
  N     -297.209     237.484     -54.175
  O     -301.682     240.469     -54.595
  O     -302.759     238.392     -53.440
  H     -297.790     235.634     -50.678
  H     -303.073     238.106     -52.565
  H     -293.177     235.883     -55.240
  H     -298.948     238.683     -54.630
  H     -297.413     235.679     -53.222
  H     -296.138     237.712     -51.706
  H     -298.144     239.059     -51.596
  H     -299.626     236.430     -50.985
  H     -301.563     237.504     -51.953
  H     -294.059     238.909     -58.454
  H     -295.664     239.553     -58.121
  H     -300.932     238.553     -50.666
  P     -297.426     239.342     -48.967
  C     -299.575     240.685     -48.534
  O     -298.313     240.662     -49.191
  O     -295.991     239.493     -49.329
  O     -297.620     239.035     -47.411
  H     -296.809     239.261     -46.918
  H     -300.075     241.605     -48.753
  H     -299.429     240.602     -47.477
  H     -300.171     239.865     -48.877

 6  7  8  9  10  11  12  13  14  15  25  28  32  33  34  35 0
 6-311+G(2d,p)
 ****
 36  39  40 0
 6-311+G(2d,p)
 ****
 1  2  3  4  5  16  17  18  19  20  21  22  23  24 0
 3-21G
 ****
 26  27  29  30  31  37  38  41  42  43  44  45  46  47 0
 3-21G
 ****
 48 0
 3-21G
 ****


