%nproc=1
%NoSave
%Mem=1900MB
#P OB98/GEN NMR

erre ene a

0 1
  C      589.708     628.014    -898.170
  O      589.382     626.982    -897.240
  P      588.930     625.578    -897.870
  C      590.739     624.603    -896.280
  O      589.501     624.399    -896.930
  C      591.173     623.340    -895.530
  O      590.141     622.823    -894.660
  C      591.556     622.182    -896.450
  O      592.862     622.386    -896.950
  C      591.431     620.981    -895.500
  O      592.638     620.812    -894.740
  C      590.262     621.401    -894.620
  N      587.406     617.223    -894.180
  C      588.726     617.413    -893.850
  N      589.346     616.382    -893.280
  N      589.347     618.561    -894.020
  C      588.571     619.508    -894.580
  C      587.244     619.444    -894.940
  C      586.554     618.186    -894.750
  O      585.388     617.960    -895.010
  N      586.795     620.644    -895.440
  C      587.882     621.388    -895.490
  N      588.977     620.786    -894.930
  O      589.834     625.471    -899.200
  O      587.482     625.490    -898.200
  H      592.483     620.128    -894.060
  H      589.274     625.568    -900.000
  H      586.959     616.335    -894.040
  H      587.919     622.396    -895.890
  H      590.455     621.143    -893.550
  H      591.288     620.068    -896.060
  H      588.936     615.478    -893.120
  H      590.822     622.113    -897.260
  H      590.341     616.499    -893.010
  H      592.038     623.615    -894.900
  H      590.668     625.440    -895.570
  H      591.487     624.888    -897.030
  P      593.023     622.953    -898.430
  C      595.540     623.453    -898.040
  O      594.566     622.841    -898.850
  O      592.802     624.550    -898.240
  O      592.044     622.412    -899.420
  H      592.210     624.885    -898.950
  H      596.465     622.871    -898.100
  H      595.224     623.460    -896.980
  H      595.718     624.468    -898.400
  H      589.993     628.897    -897.637
  H      588.856     628.226    -898.781
  H      590.520     627.693    -898.789

 3  4  5  6  7  8  9  10  11  12  23  26  30  31 0
 6-311+G(2d,p)
 ****
 33  35  36  37  38 0
 6-311+G(2d,p)
 ****
 1  2  13  14  15  16  17  18  19  20  21  22  24  25 0
 3-21G
 ****
 27  28  29  32  34  39  40  41  42  43  44  45  46  47  48  49 0
 3-21G
 ****


