%nproc=1
%NoSave
%Mem=1900MB
#P OB98/GEN NMR

erre ene a

0 1
  C      -82.571    -576.076     178.358
  O      -81.572    -575.168     177.951
  H      -82.104    -577.044     178.552
  H      -83.314    -576.196     177.565
  H      -83.065    -575.739     179.275
  P      -81.919    -573.605     177.915
  C      -79.359    -573.269     177.973
  O      -80.596    -572.839     177.425
  C      -78.321    -573.493     176.865
  O      -78.811    -574.520     175.962
  C      -78.109    -572.227     176.029
  O      -76.804    -572.167     175.462
  C      -79.125    -572.389     174.909
  O      -78.800    -571.640     173.740
  C      -79.099    -573.903     174.697
  N      -82.192    -574.265     170.661
  C      -81.094    -573.449     170.844
  N      -80.771    -572.630     169.816
  N      -80.384    -573.431     171.945
  C      -80.861    -574.252     172.912
  C      -81.954    -575.084     172.856
  C      -82.712    -575.125     171.618
  O      -83.710    -575.808     171.414
  N      -82.135    -575.757     174.037
  C      -81.155    -575.329     174.810
  N      -80.341    -574.431     174.164
  O      -81.996    -573.201     179.464
  O      -83.177    -573.236     177.190
  H      -78.575    -570.735     174.022
  H      -82.524    -572.393     179.578
  H      -82.687    -574.264     169.783
  H      -80.983    -575.645     175.830
  H      -78.300    -574.182     174.000
  H      -80.091    -572.029     175.267
  H      -81.403    -572.478     169.047
  H      -78.292    -571.314     176.592
  H      -80.182    -571.825     170.050
  H      -77.389    -573.868     177.296
  H      -79.554    -574.196     178.512
  H      -78.993    -572.544     178.703
  P      -75.578    -571.747     176.405
  C      -73.796    -573.704     176.262
  O      -74.230    -572.418     175.872
  O      -75.869    -572.512     177.775
  O      -75.437    -570.271     176.604
  H      -76.042    -571.874     178.491
  H      -72.871    -573.932     175.774
  H      -74.533    -574.428     175.985
  H      -73.655    -573.726     177.322

 6  7  8  9  10  11  12  13  14  15  26  29  33  34 0
 6-311+G(2d,p)
 ****
 36  38  39  40  41 0
 6-311+G(2d,p)
 ****
 1  2  3  4  5  16  17  18  19  20  21  22  23  24  25 0
 3-21G
 ****
 27  28  30  31  32  35  37  42  43  44  45  46  47 0
 3-21G
 ****
 48  49 0
 3-21G
 ****


