%nproc=1
%NoSave
%Mem=1900MB
#P OB98/GEN NMR

erre ene a

0 1
  C     -898.949    -591.909     404.464
  O     -898.459    -590.893     405.307
  P     -898.589    -591.023     406.892
  C     -896.139    -590.242     407.197
  O     -897.079    -591.272     407.438
  C     -895.329    -589.951     408.484
  O     -894.559    -591.108     408.842
  C     -894.349    -588.820     408.334
  O     -895.009    -587.561     408.384
  C     -893.409    -589.078     409.523
  O     -893.949    -588.581     410.734
  C     -893.369    -590.640     409.534
  N     -892.169    -591.185     408.928
  C     -890.959    -590.924     409.621
  O     -890.979    -590.258     410.664
  N     -889.769    -591.390     409.094
  C     -889.789    -592.043     407.982
  N     -888.589    -592.459     407.496
  C     -891.009    -592.300     407.188
  C     -892.159    -591.837     407.715
  O     -899.599    -592.027     407.372
  O     -898.879    -589.522     407.389
  H     -893.409    -588.983     411.448
  H     -899.819    -589.261     407.184
  H     -890.969    -592.828     406.250
  H     -893.089    -591.995     407.224
  H     -893.459    -591.017     410.549
  H     -892.429    -588.640     409.367
  H     -893.809    -588.913     407.384
  H     -896.059    -589.747     409.280
  H     -887.759    -592.227     408.040
  H     -896.699    -589.331     406.905
  H     -888.479    -592.950     406.623
  H     -895.489    -590.515     406.371
  P     -894.729    -586.458     407.269
  C     -897.059    -586.574     406.172
  O     -895.669    -586.793     406.023
  O     -893.299    -586.208     406.947
  O     -895.419    -585.121     407.863
  H     -894.809    -584.369     407.744
  H     -897.529    -586.528     405.216
  H     -897.269    -585.656     406.706
  H     -897.499    -587.422     406.757
  H     -898.771    -591.642     403.443
  H     -900.000    -592.028     404.623
  H     -898.448    -592.828     404.685

 3  4  5  6  7  8  9  10  11  12  13  23  27  28  29  30  32 0
 6-311+G(2d,p)
 ****
 34  35 0
 6-311+G(2d,p)
 ****
 1  2  14  15  16  17  18  19  20  21  22  24  25  26 0
 3-21G
 ****
 31  33  36  37  38  39  40  41  42  43  44  45  46 0
 3-21G
 ****


