%nproc=1
%NoSave
%Mem=1900MB
#P OB98/GEN NMR

erre ene a

0 1
  C       -5.752     210.747      71.291
  O       -6.381     211.578      72.246
  H       -5.944     209.703      71.556
  H       -4.671     210.912      71.279
  H       -6.167     210.936      70.297
  P       -6.035     213.147      72.226
  C       -4.417     212.739      74.197
  O       -4.573     213.273      72.883
  C       -3.417     213.567      75.008
  O       -2.107     213.484      74.413
  C       -3.742     215.052      75.051
  O       -4.894     215.369      75.803
  C       -2.403     215.669      75.428
  O       -2.172     215.708      76.832
  C       -1.403     214.694      74.760
  N       -0.746     215.291      73.605
  C        0.037     216.411      73.864
  O        0.166     216.905      74.985
  N        0.640     216.983      72.778
  C        0.497     216.581      71.482
  O        1.032     217.162      70.545
  C       -0.363     215.407      71.266
  C       -0.937     214.823      72.321
  O       -7.059     214.048      72.848
  O       -5.763     213.455      70.680
  H       -1.282     216.088      76.966
  H       -5.801     214.425      70.499
  H        1.219     217.789      72.948
  H       -0.501     215.062      70.250
  H       -1.578     213.955      72.186
  H       -0.623     214.403      75.476
  H       -2.319     216.695      75.061
  H       -3.952     215.382      74.026
  H       -3.359     213.145      76.018
  H       -4.040     211.716      74.097
  H       -5.389     212.711      74.701
  P       -5.933     216.505      75.376
  C       -4.849     218.256      76.961
  O       -5.248     217.936      75.632
  O       -7.354     216.307      75.795
  O       -5.885     216.389      73.766
  H       -6.780     216.591      73.432
  H       -4.412     219.233      76.977
  H       -4.131     217.539      77.300
  H       -5.704     218.237      77.604

 6  7  8  9  10  11  12  13  14  15  16  26  31  32  33  34  35 0
 6-311+G(2d,p)
 ****
 36  37 0
 6-311+G(2d,p)
 ****
 1  2  3  4  5  17  18  19  20  21  22  23  24  25 0
 3-21G
 ****
 27  28  29  30  38  39  40  41  42  43  44  45 0
 3-21G
 ****


