%nproc=1
%NoSave
%Mem=1900MB
#P OB98/GEN NMR

erre ene a

0 1
  C     -108.889      38.227    -244.545
  O     -109.242      39.073    -245.620
  H     -109.677      37.493    -244.368
  H     -107.967      37.698    -244.800
  H     -108.719      38.816    -243.640
  P     -110.597      39.917    -245.462
  C     -109.418      41.829    -244.168
  O     -110.431      40.831    -244.150
  C     -110.052      43.216    -244.082
  O     -110.486      43.602    -245.413
  C     -111.263      43.310    -243.137
  O     -111.033      44.300    -242.132
  C     -112.401      43.786    -244.029
  O     -113.242      44.751    -243.399
  C     -111.683      44.370    -245.239
  N     -114.480      47.150    -248.471
  C     -113.478      47.494    -247.631
  N     -112.701      46.691    -246.876
  C     -113.026      45.400    -247.068
  C     -114.005      44.895    -247.905
  C     -114.767      45.834    -248.617
  N     -115.824      45.487    -249.430
  N     -114.052      43.514    -247.828
  C     -113.143      43.197    -246.926
  N     -112.510      44.305    -246.425
  O     -111.668      38.811    -245.013
  O     -111.036      40.644    -246.688
  H     -113.797      44.267    -242.759
  H     -112.475      38.899    -245.551
  H     -113.276      48.558    -247.552
  H     -112.936      42.197    -246.567
  H     -111.392      45.418    -245.080
  H     -113.017      42.924    -244.311
  H     -111.509      42.350    -242.668
  H     -109.278      43.930    -243.776
  H     -108.847      41.756    -245.102
  H     -116.391      46.230    -249.807
  H     -116.115      44.521    -249.456
  H     -108.737      41.661    -243.328
  P     -110.666      43.761    -240.660
  C     -109.041      45.700    -240.044
  O     -109.201      44.309    -240.299
  O     -110.425      42.197    -240.902
  O     -111.728      44.014    -239.641
  H     -110.610      41.699    -240.082
  H     -108.015      45.906    -239.820
  H     -109.651      45.983    -239.212
  H     -109.336      46.257    -240.908

 6  7  8  9  10  11  12  13  14  15  25  28  32  33  34  35 0
 6-311+G(2d,p)
 ****
 36  39  40 0
 6-311+G(2d,p)
 ****
 1  2  3  4  5  16  17  18  19  20  21  22  23  24 0
 3-21G
 ****
 26  27  29  30  31  37  38  41  42  43  44  45  46  47  48 0
 3-21G
 ****


