%nproc=1
%NoSave
%Mem=1900MB
#P OB98/GEN NMR

erre ene a

0 1
  C      133.733      25.365      81.084
  O      132.428      24.899      81.344
  H      133.881      25.404      80.002
  H      134.461      24.671      81.513
  H      133.892      26.364      81.496
  P      131.787      25.169      82.783
  C      131.009      27.614      82.501
  O      131.942      26.734      83.115
  C      130.823      28.896      83.313
  O      130.111      28.599      84.533
  C      132.155      29.530      83.722
  O      132.707      30.411      82.758
  C      131.770      30.281      84.993
  O      131.302      31.606      84.695
  C      130.637      29.430      85.578
  N      132.700      29.282      90.253
  C      132.615      30.348      89.376
  N      133.185      31.500      89.789
  N      132.040      30.271      88.205
  C      131.605      29.030      87.891
  C      131.652      27.895      88.669
  C      132.224      28.005      89.994
  O      132.308      27.097      90.813
  N      131.150      26.804      88.000
  C      130.883      27.265      86.794
  N      131.067      28.624      86.706
  O      132.840      24.499      83.792
  O      130.417      24.601      82.997
  H      131.005      32.017      85.531
  H      132.372      24.165      84.578
  H      133.128      29.408      91.152
  H      130.513      26.671      85.967
  H      129.809      30.057      85.932
  H      132.631      30.393      85.655
  H      133.714      31.590      90.641
  H      132.884      28.760      83.989
  H      133.312      32.247      89.104
  H      130.203      29.598      82.742
  H      130.065      27.071      82.438
  H      131.322      27.849      81.480
  P      134.226      30.894      82.863
  C      135.596      28.753      82.208
  O      135.135      29.631      83.211
  O      134.242      31.745      84.217
  O      134.731      31.683      81.700
  H      134.179      32.699      84.025
  H      136.185      27.979      82.654
  H      136.194      29.296      81.506
  H      134.759      28.318      81.703

 6  7  8  9  10  11  12  13  14  15  26  29  33  34 0
 6-311+G(2d,p)
 ****
 36  38  39  40  41 0
 6-311+G(2d,p)
 ****
 1  2  3  4  5  16  17  18  19  20  21  22  23  24  25 0
 3-21G
 ****
 27  28  30  31  32  35  37  42  43  44  45  46  47 0
 3-21G
 ****
 48  49 0
 3-21G
 ****


