%nproc=1
%NoSave
%Mem=1900MB
#P OB98/GEN NMR

erre ene a

0 1
  C     -108.785      90.879     206.797
  O     -108.830      90.691     208.213
  P     -108.976      89.172     208.721
  C     -106.916      88.670     210.207
  O     -107.499      88.574     208.917
  C     -105.494      88.097     210.225
  O     -105.516      86.645     210.085
  C     -104.596      88.638     209.107
  O     -103.268      88.719     209.642
  C     -104.646      87.532     208.070
  O     -103.561      87.626     207.152
  C     -104.634      86.313     208.991
  N     -103.040      81.931     207.051
  C     -102.320      83.001     207.550
  N     -100.977      82.859     207.583
  N     -102.865      84.107     207.981
  C     -104.221      84.089     207.923
  C     -105.048      83.090     207.467
  C     -104.426      81.884     206.965
  O     -105.017      80.909     206.517
  N     -106.373      83.433     207.600
  C     -106.330      84.667     208.073
  N     -105.058      85.089     208.337
  O     -109.531      88.411     207.428
  O     -109.889      89.019     209.891
  H     -102.729      87.622     207.673
  H     -110.494      88.275     207.506
  H     -102.568      81.110     206.717
  H     -107.191      85.287     208.266
  H     -103.636      86.113     209.401
  H     -105.584      87.586     207.505
  H     -100.494      82.015     207.313
  H     -104.904      89.609     208.708
  H     -100.426      83.610     207.980
  H     -105.047      88.323     211.201
  H     -107.527      88.131     210.934
  H     -106.922      89.720     210.524
  P     -103.008      89.735     210.852
  C     -101.974      88.205     212.664
  O     -103.120      88.897     212.211
  O     -104.334      90.636     210.858
  O     -101.787      90.582     210.703
  H     -104.099      91.560     211.058
  H     -102.036      88.095     213.750
  H     -101.051      88.740     212.417
  H     -101.946      87.211     212.211
  H     -108.687      91.922     206.579
  H     -109.687      90.506     206.359
  H     -107.947      90.350     206.393

 3  4  5  6  7  8  9  10  11  12  23  26  30  31 0
 6-311+G(2d,p)
 ****
 33  35  36  37  38 0
 6-311+G(2d,p)
 ****
 1  2  13  14  15  16  17  18  19  20  21  22  24  25 0
 3-21G
 ****
 27  28  29  32  34  39  40  41  42  43  44  45  46  47  48  49 0
 3-21G
 ****


