%nproc=1
%NoSave
%Mem=1900MB
#P OB98/GEN NMR

erre ene a

0 1
  C      581.637     226.713    -655.780
  O      581.502     226.067    -657.040
  P      582.779     225.268    -657.599
  C      581.672     225.375    -659.959
  O      582.843     225.596    -659.169
  C      581.853     225.985    -661.352
  O      581.900     227.422    -661.252
  C      583.141     225.576    -662.045
  O      583.026     224.265    -662.565
  C      583.265     226.658    -663.109
  O      582.533     226.312    -664.288
  C      582.634     227.891    -662.408
  N      583.620     228.886    -662.038
  C      583.552     230.108    -662.729
  O      582.693     230.273    -663.605
  N      584.476     231.089    -662.438
  C      585.384     230.860    -661.539
  N      586.266     231.867    -661.284
  C      585.510     229.586    -660.796
  C      584.610     228.652    -661.101
  O      582.302     223.743    -657.553
  O      584.043     225.493    -656.832
  H      583.038     225.590    -664.715
  H      583.067     223.145    -657.467
  H      586.287     229.454    -660.062
  H      584.626     227.681    -660.616
  H      581.899     228.373    -663.069
  H      584.303     226.812    -663.411
  H      583.991     225.634    -661.353
  H      580.977     225.705    -661.953
  H      586.164     232.725    -661.820
  H      580.817     225.846    -659.467
  H      587.001     231.799    -660.596
  H      581.487     224.300    -660.019
  P      584.254     223.264    -662.328
  C      582.739     221.271    -662.905
  O      583.912     221.986    -663.228
  O      583.958     222.715    -660.851
  O      585.630     223.823    -662.463
  H      584.707     222.164    -660.545
  H      582.540     220.526    -663.679
  H      581.886     221.955    -662.841
  H      582.870     220.749    -661.945
  H      580.719     227.203    -655.530
  H      582.424     227.436    -655.832
  H      581.869     225.986    -655.030

 3  4  5  6  7  8  9  10  11  12  13  21  23  27  28  29  30  32 0
 6-311+G(2d,p)
 ****
 34  35 0
 6-311+G(2d,p)
 ****
 1  2  14  15  16  17  18  19  20  22  24  25  26 0
 3-21G
 ****
 31  33  36  37  38  39  40  41  42  43  44  45  46 0
 3-21G
 ****


