%nproc=1
%NoSave
%Mem=1900MB
#P OB98/GEN NMR

erre ene a

0 1
  C      145.279       8.670     -79.058
  O      144.799       9.769     -79.806
  H      144.511       8.372     -78.340
  H      146.181       8.957     -78.511
  H      145.496       7.825     -79.718
  P      145.701      10.259     -81.035
  C      145.178      11.661     -83.193
  O      144.702      10.785     -82.179
  C      144.085      12.655     -83.578
  O      142.863      11.976     -83.927
  C      143.673      13.585     -82.449
  O      144.657      14.549     -82.149
  C      142.392      14.168     -83.027
  O      142.677      15.198     -83.983
  C      141.782      12.927     -83.725
  N      140.684      12.344     -82.967
  C      139.492      13.080     -82.958
  O      139.414      14.142     -83.573
  N      138.432      12.604     -82.226
  C      138.541      11.484     -81.585
  N      137.459      11.072     -80.872
  C      139.769      10.665     -81.590
  C      140.791      11.152     -82.289
  O      146.241       8.883     -81.642
  O      146.768      11.245     -80.689
  H      141.816      15.592     -84.227
  H      145.538       8.245     -81.849
  H      139.811       9.732     -81.047
  H      141.729      10.615     -82.345
  H      141.404      13.193     -84.721
  H      141.761      14.615     -82.257
  H      143.406      13.004     -81.558
  H      144.430      13.216     -84.456
  H      136.641      11.670     -80.875
  H      145.515      11.099     -84.068
  H      137.438      10.236     -80.309
  H      146.046      12.193     -82.787
  P      144.871      15.054     -80.642
  C      146.512      16.701     -79.539
  O      146.297      15.793     -80.614
  O      144.693      14.010     -79.592
  O      143.851      16.283     -80.517
  H      144.011      17.010     -81.145
  H      147.489      17.130     -79.624
  H      146.432      16.178     -78.609
  H      145.777      17.478     -79.576

 6  7  8  9  10  11  12  13  14  15  16  26  30  31  32  33  35 0
 6-311+G(2d,p)
 ****
 37  38 0
 6-311+G(2d,p)
 ****
 1  2  3  4  5  17  18  19  20  21  22  23  24  25 0
 3-21G
 ****
 27  28  29  34  36  39  40  41  42  43  44  45  46 0
 3-21G
 ****


