%nproc=1
%NoSave
%Mem=1900MB
#P OB98/GEN NMR

erre ene a

0 1
  C     -184.981     622.639      77.105
  O     -185.348     621.595      76.227
  H     -185.845     623.287      77.260
  H     -184.173     623.234      76.664
  H     -184.663     622.243      78.073
  P     -184.314     620.399      75.976
  C     -184.344     619.628      73.511
  O     -184.927     619.495      74.801
  C     -185.250     619.005      72.440
  O     -185.388     617.580      72.720
  C     -186.671     619.592      72.394
  O     -187.128     619.490      71.038
  C     -187.412     618.627      73.304
  O     -188.808     618.775      73.227
  C     -186.801     617.311      72.813
  N     -187.052     616.150      73.659
  C     -187.451     614.969      73.040
  O     -187.599     614.833      71.825
  N     -187.685     613.909      73.872
  C     -187.551     613.907      75.228
  O     -187.746     612.917      75.923
  C     -187.134     615.183      75.828
  C     -186.904     616.226      75.030
  O     -183.884     619.644      77.190
  O     -183.073     621.117      75.260
  H     -182.352     621.252      75.907
  H     -189.094     618.652      72.295
  H     -187.972     613.045      73.441
  H     -187.029     615.222      76.904
  H     -186.588     617.180      75.440
  H     -187.149     617.089      71.796
  H     -187.148     618.815      74.346
  H     -186.715     620.638      72.712
  H     -184.753     619.091      71.465
  H     -183.376     619.117      73.522
  H     -184.183     620.690      73.298
  P     -187.479     620.762      70.121
  C     -189.577     620.157      68.731
  O     -188.157     620.230      68.768
  O     -186.322     621.680      69.894
  O     -188.671     621.512      70.883
  H     -188.662     622.461      70.646
  H     -189.890     619.789      67.777
  H     -189.989     621.132      68.890
  H     -189.920     619.496      69.499

 6  7  8  9  10  11  12  13  14  15  16  27  31  32  33  34  35 0
 6-311+G(2d,p)
 ****
 36  37 0
 6-311+G(2d,p)
 ****
 1  2  3  4  5  17  18  19  20  21  22  23  24  25 0
 3-21G
 ****
 26  28  29  30  38  39  40  41  42  43  44  45 0
 3-21G
 ****


