%nproc=1
%NoSave
%Mem=1900MB
#P OB98/GEN NMR

erre ene a

0 1
  C       32.015    -208.592     209.157
  O       32.435    -209.065     207.885
  P       31.947    -208.334     206.542
  C       32.117    -205.899     205.736
  O       31.936    -206.760     206.855
  C       31.206    -204.676     205.842
  O       29.827    -205.117     205.790
  C       31.390    -203.894     207.139
  O       31.221    -202.498     206.868
  C       30.232    -204.345     208.017
  O       29.892    -203.339     208.985
  C       29.154    -204.634     206.970
  N       24.856    -205.540     209.633
  C       25.520    -204.396     209.366
  N       26.668    -204.231     208.670
  C       27.105    -205.408     208.186
  C       26.531    -206.656     208.375
  C       25.350    -206.703     209.141
  N       24.668    -207.868     209.404
  N       27.279    -207.639     207.753
  C       28.271    -206.988     207.182
  N       28.204    -205.635     207.409
  O       30.678    -208.860     205.963
  O       33.172    -208.495     205.529
  H       29.225    -203.730     209.586
  H       32.848    -208.657     204.625
  H       25.073    -203.488     209.757
  H       29.064    -207.446     206.611
  H       28.600    -203.726     206.699
  H       30.518    -205.253     208.563
  H       32.362    -204.074     207.611
  H       31.380    -204.035     204.973
  H       31.866    -206.458     204.828
  H       23.768    -207.791     209.859
  H       24.936    -208.704     208.898
  H       33.167    -205.593     205.678
  P       31.921    -201.487     207.911
  C       34.415    -200.766     208.139
  O       33.492    -201.755     207.742
  O       31.350    -201.619     209.285
  O       31.658    -200.079     207.200
  H       31.535    -200.179     206.234
  H       35.425    -201.113     207.910
  H       34.342    -200.592     209.218
  H       34.231    -199.830     207.602
  H       32.441    -209.204     209.924
  H       30.948    -208.635     209.219
  H       32.340    -207.581     209.287

 3  4  5  6  7  8  9  10  11  12  22  25  29  30  31  32 0
 6-311+G(2d,p)
 ****
 33  36  37 0
 6-311+G(2d,p)
 ****
 1  2  13  14  15  16  17  18  19  20  21  23  24  26 0
 3-21G
 ****
 27  28  34  35  38  39  40  41  42  43  44  45  46  47  48 0
 3-21G
 ****


