%nproc=1
%NoSave
%Mem=1900MB
#P OB98/GEN NMR

erre ene a

0 1
  C       79.566     125.394      -2.158
  O       79.698     126.792      -2.309
  H       78.503     125.140      -2.157
  H       80.007     125.070      -1.211
  H       80.054     124.879      -2.990
  P       81.190     127.384      -2.220
  C       81.723     126.944      -4.735
  O       81.975     126.597      -3.382
  C       82.939     127.644      -5.330
  O       83.167     128.913      -4.675
  C       84.249     126.875      -5.181
  O       84.385     125.813      -6.109
  C       85.240     127.993      -5.452
  O       85.267     128.283      -6.862
  C       84.602     129.150      -4.656
  N       85.091     129.234      -3.277
  C       85.576     130.478      -2.858
  O       85.584     131.440      -3.623
  N       86.076     130.597      -1.583
  C       86.073     129.573      -0.789
  N       86.583     129.751       0.460
  C       85.561     128.249      -1.183
  C       85.090     128.151      -2.424
  O       81.775     126.718      -0.889
  O       81.310     128.869      -2.275
  H       85.769     127.563      -7.285
  H       82.744     126.901      -0.818
  H       85.590     127.420      -0.490
  H       84.695     127.208      -2.786
  H       84.781     130.113      -5.148
  H       86.260     127.747      -5.161
  H       84.391     126.519      -4.155
  H       82.720     127.856      -6.383
  H       86.981     130.655       0.681
  H       80.854     127.609      -4.764
  H       86.762     128.985       1.095
  H       81.502     126.045      -5.318
  P       85.177     124.505      -5.617
  C       82.862     123.337      -5.384
  O       84.131     123.607      -4.801
  O       86.146     125.071      -4.480
  O       85.933     123.787      -6.692
  H       86.994     124.585      -4.469
  H       82.286     122.729      -4.718
  H       82.998     122.820      -6.311
  H       82.348     124.258      -5.562

 6  7  8  9  10  11  12  13  14  15  16  26  30  31  32  33  35 0
 6-311+G(2d,p)
 ****
 37  38 0
 6-311+G(2d,p)
 ****
 1  2  3  4  5  17  18  19  20  21  22  23  24  25 0
 3-21G
 ****
 27  28  29  34  36  39  40  41  42  43  44  45  46 0
 3-21G
 ****


