%nproc=1
%NoSave
%Mem=1900MB
#P OB98/GEN NMR

erre ene a

0 1
  C      410.363     297.248     431.823
  O      409.790     295.986     431.546
  H      411.273     297.097     432.413
  H      409.667     297.865     432.398
  H      410.628     297.752     430.889
  P      408.417     295.990     430.712
  C      409.344     296.732     428.424
  O      408.865     295.646     429.208
  C      410.012     296.216     427.150
  O      410.226     297.336     426.254
  C      411.372     295.558     427.397
  O      411.519     294.436     426.527
  C      412.370     296.635     427.010
  O      413.626     296.098     426.620
  C      411.616     297.365     425.897
  N      415.327     300.309     424.000
  C      415.066     298.993     423.873
  N      414.041     298.288     424.402
  C      413.214     299.100     425.086
  C      413.351     300.457     425.306
  C      414.477     301.073     424.732
  N      414.764     302.404     424.874
  N      412.322     300.926     426.098
  C      411.563     299.872     426.340
  N      412.077     298.739     425.758
  O      407.572     297.211     430.865
  O      407.742     294.622     431.195
  H      414.240     296.843     426.443
  H      408.390     293.892     431.222
  H      415.775     298.426     423.274
  H      410.659     299.872     426.930
  H      411.741     296.882     424.922
  H      412.537     297.303     427.866
  H      411.498     295.239     428.434
  H      409.323     295.533     426.639
  H      410.060     297.325     428.999
  H      415.586     302.773     424.419
  H      414.133     303.001     425.399
  H      408.485     297.369     428.173
  P      411.008     293.004     427.032
  C      408.761     292.831     425.763
  O      410.098     292.350     425.881
  O      410.428     292.964     428.408
  O      412.340     292.114     426.954
  H      412.351     291.496     427.713
  H      408.266     292.318     424.965
  H      408.777     293.881     425.556
  H      408.237     292.656     426.679

 6  7  8  9  10  11  12  13  14  15  25  28  32  33  34  35 0
 6-311+G(2d,p)
 ****
 36  39  40 0
 6-311+G(2d,p)
 ****
 1  2  3  4  5  16  17  18  19  20  21  22  23  24 0
 3-21G
 ****
 26  27  29  30  31  37  38  41  42  43  44  45  46  47 0
 3-21G
 ****
 48 0
 3-21G
 ****


