%nproc=1
%NoSave
%Mem=1900MB
#P OB98/GEN NMR

erre ene a

0 1
  C      -17.388    -883.270     243.631
  O      -16.593    -884.404     243.333
  P      -16.720    -885.067     241.890
  C      -14.465    -886.107     242.684
  O      -15.563    -886.183     241.787
  C      -13.959    -887.501     243.040
  O      -13.765    -888.279     241.850
  C      -12.609    -887.494     243.737
  O      -12.720    -887.220     245.136
  C      -12.175    -888.935     243.525
  O      -12.819    -889.807     244.479
  C      -12.674    -889.218     242.109
  N       -8.724    -891.437     239.838
  C       -9.678    -891.952     240.695
  N       -9.492    -893.260     241.049
  N      -10.678    -891.313     241.170
  C      -10.735    -890.019     240.739
  C       -9.844    -889.349     239.897
  C       -8.719    -890.102     239.390
  O       -7.818    -889.658     238.676
  N      -10.229    -888.042     239.682
  C      -11.321    -887.899     240.403
  N      -11.651    -889.046     241.096
  O      -16.213    -883.927     240.894
  O      -18.095    -885.554     241.543
  H      -12.370    -889.698     245.327
  H      -16.498    -884.117     239.971
  H       -7.947    -891.986     239.511
  H      -11.891    -886.998     240.462
  H      -13.094    -890.246     242.007
  H      -11.099    -889.091     243.651
  H       -8.689    -893.811     240.769
  H      -11.891    -886.827     243.258
  H      -10.154    -893.677     241.714
  H      -14.718    -887.986     243.658
  H      -14.772    -885.577     243.595
  H      -13.653    -885.513     242.207
  P      -11.631    -886.228     245.791
  C      -13.534    -885.496     247.394
  O      -12.172    -885.873     247.238
  O      -11.822    -884.879     244.945
  O      -10.226    -886.756     245.703
  H      -10.987    -884.371     244.919
  H      -13.810    -885.557     248.448
  H      -14.184    -886.192     246.820
  H      -13.680    -884.468     247.043
  H      -17.188    -882.947     244.631
  H      -18.423    -883.526     243.539
  H      -17.154    -882.481     242.948

 3  4  5  6  7  8  9  10  11  12  23  26  30  31 0
 6-311+G(2d,p)
 ****
 33  35  36  37  38 0
 6-311+G(2d,p)
 ****
 1  2  13  14  15  16  17  18  19  20  21  22  24  25 0
 3-21G
 ****
 27  28  29  32  34  39  40  41  42  43  44  45  46  47  48  49 0
 3-21G
 ****


