%nproc=1
%NoSave
%Mem=1900MB
#P OB98/GEN NMR

erre ene a

0 1
  C      292.842     219.870      37.475
  O      292.208     220.738      36.558
  H      292.331     218.898      37.455
  H      292.767     220.278      38.486
  H      293.895     219.715      37.214
  P      292.918     222.117      36.178
  C      291.577     223.171      38.127
  O      292.848     223.033      37.500
  C      291.405     224.587      38.669
  O      292.257     224.743      39.843
  C      291.803     225.682      37.652
  O      290.954     226.816      37.848
  C      293.220     226.009      38.094
  O      293.642     227.265      37.630
  C      293.075     225.906      39.615
  N      294.374     225.818      40.271
  C      294.964     227.014      40.668
  O      294.452     228.118      40.496
  N      296.211     226.913      41.230
  C      296.957     225.772      41.315
  O      298.104     225.756      41.755
  C      296.303     224.542      40.828
  C      295.065     224.620      40.344
  O      292.427     222.793      34.933
  O      294.478     221.762      36.104
  H      293.634     227.277      36.656
  H      294.955     222.430      35.573
  H      296.649     227.773      41.534
  H      296.875     223.624      40.875
  H      294.567     223.736      39.958
  H      292.530     226.777      40.019
  H      293.918     225.259      37.718
  H      291.747     225.346      36.616
  H      290.370     224.722      38.999
  H      291.527     222.444      38.951
  H      290.786     222.937      37.403
  P      289.783     227.198      36.797
  C      290.735     229.127      35.394
  O      290.418     227.742      35.423
  O      288.723     228.073      37.369
  O      289.164     225.779      36.382
  H      288.189     225.842      36.401
  H      291.148     229.378      34.440
  H      291.449     229.346      36.160
  H      289.847     229.700      35.560

 6  7  8  9  10  11  12  13  14  15  16  26  31  32  33  34  35 0
 6-311+G(2d,p)
 ****
 36  37 0
 6-311+G(2d,p)
 ****
 1  2  3  4  5  17  18  19  20  21  22  23  24  25 0
 3-21G
 ****
 27  28  29  30  38  39  40  41  42  43  44  45 0
 3-21G
 ****


