%nproc=1
%NoSave
%Mem=1900MB
#P OB98/GEN NMR

erre ene a

0 1
  C     -171.892      27.377      93.888
  O     -170.729      27.953      94.450
  H     -172.459      28.164      93.381
  H     -172.517      26.952      94.677
  H     -171.632      26.606      93.158
  P     -169.642      26.996      95.133
  C     -167.929      26.654      93.232
  O     -168.223      27.322      94.452
  C     -166.941      27.470      92.392
  O     -167.571      28.722      92.021
  C     -165.636      27.801      93.124
  O     -164.551      27.746      92.196
  C     -165.845      29.231      93.587
  O     -164.614      29.930      93.758
  C     -166.721      29.797      92.471
  N     -167.242      34.821      92.276
  C     -166.368      33.990      91.608
  N     -165.484      34.584      90.775
  N     -166.352      32.691      91.744
  C     -167.306      32.229      92.592
  C     -168.233      32.949      93.314
  C     -168.220      34.390      93.168
  O     -168.963      35.180      93.747
  N     -169.019      32.123      94.080
  C     -168.568      30.908      93.822
  N     -167.522      30.921      92.936
  O     -170.005      25.543      95.155
  O     -169.476      27.579      96.613
  H     -164.841      30.862      93.968
  H     -169.921      27.009      97.267
  H     -167.203      35.817      92.144
  H     -168.956      29.996      94.252
  H     -166.133      30.157      91.618
  H     -166.377      29.235      94.548
  H     -165.453      35.578      90.603
  H     -165.443      27.121      93.954
  H     -164.849      33.995      90.249
  H     -166.741      26.925      91.461
  H     -168.865      26.524      92.677
  H     -167.508      25.666      93.453
  P     -163.236      26.910      92.581
  C     -163.495      24.356      92.723
  O     -163.307      25.474      91.864
  O     -162.907      26.871      94.038
  O     -162.083      27.660      91.753
  H     -161.255      27.636      92.273
  H     -163.527      23.459      92.140
  H     -164.416      24.467      93.257
  H     -162.684      24.300      93.419

 6  7  8  9  10  11  12  13  14  15  26  29  33  34 0
 6-311+G(2d,p)
 ****
 36  38  39  40  41 0
 6-311+G(2d,p)
 ****
 1  2  3  4  5  16  17  18  19  20  21  22  23  24  25 0
 3-21G
 ****
 27  28  30  31  32  35  37  42  43  44  45  46  47 0
 3-21G
 ****
 48  49 0
 3-21G
 ****


