%nproc=1
%NoSave
%Mem=1900MB
#P OB98/GEN NMR

erre ene a

0 1
  C     -520.508     704.535     355.577
  O     -521.266     703.942     356.638
  P     -522.530     703.040     356.198
  C     -523.720     700.947     357.178
  O     -522.906     702.085     357.432
  C     -523.447     699.833     358.197
  O     -522.376     698.947     357.772
  C     -523.035     700.365     359.566
  O     -524.185     700.777     360.287
  C     -522.351     699.132     360.180
  O     -523.316     698.240     360.767
  C     -521.677     698.492     358.962
  N     -517.154     696.422     357.950
  C     -518.391     695.811     358.140
  N     -518.422     694.467     358.022
  N     -519.479     696.476     358.420
  C     -519.296     697.820     358.506
  C     -518.141     698.520     358.309
  C     -516.925     697.797     358.006
  O     -515.824     698.274     357.808
  N     -518.357     699.888     358.425
  C     -519.623     699.976     358.810
  N     -520.252     698.747     358.808
  O     -521.915     702.040     355.105
  O     -523.658     703.836     355.635
  H     -522.845     697.626     361.366
  H     -522.254     702.282     354.223
  H     -516.345     695.860     357.752
  H     -520.124     700.881     359.068
  H     -521.796     697.395     358.970
  H     -521.661     699.432     360.974
  H     -517.606     693.887     357.805
  H     -522.317     701.186     359.447
  H     -519.318     694.001     358.151
  H     -524.365     699.232     358.286
  H     -523.540     700.585     356.160
  H     -524.775     701.252     357.209
  P     -524.479     702.352     360.374
  C     -525.902     703.893     361.905
  O     -525.459     702.594     361.624
  O     -525.423     702.612     359.092
  O     -523.267     703.223     360.326
  H     -525.135     703.429     358.637
  H     -526.895     703.846     362.386
  H     -525.982     704.507     360.991
  H     -525.203     704.375     362.607
  H     -519.702     705.105     355.990
  H     -521.141     705.178     355.002
  H     -520.114     703.765     354.947

 3  4  5  6  7  8  9  10  11  12  23  26  30  31 0
 6-311+G(2d,p)
 ****
 33  35  36  37  38 0
 6-311+G(2d,p)
 ****
 1  2  13  14  15  16  17  18  19  20  21  22  24  25 0
 3-21G
 ****
 27  28  29  32  34  39  40  41  42  43  44  45  46  47  48  49 0
 3-21G
 ****


