%nproc=1
%NoSave
%Mem=1900MB
#P OB98/GEN NMR

erre ene a

0 1
  C     -168.844     179.826    -526.496
  O     -169.336     180.581    -527.584
  H     -169.626     179.139    -526.162
  H     -168.593     180.493    -525.665
  H     -167.964     179.248    -526.793
  P     -168.313     181.598    -528.283
  C     -168.945     183.571    -526.715
  O     -167.922     182.689    -527.167
  C     -168.375     184.608    -525.745
  O     -167.211     185.237    -526.363
  C     -169.361     185.728    -525.365
  O     -169.113     186.093    -524.001
  C     -168.917     186.885    -526.261
  O     -169.344     188.148    -525.759
  C     -167.407     186.669    -526.245
  N     -164.891     190.883    -527.359
  C     -165.386     190.429    -526.146
  N     -165.176     191.216    -525.067
  N     -166.026     189.296    -526.010
  C     -166.134     188.595    -527.175
  C     -165.695     188.946    -528.423
  C     -165.011     190.214    -528.569
  O     -164.571     190.685    -529.620
  N     -166.022     187.972    -529.349
  C     -166.656     187.056    -528.652
  N     -166.744     187.379    -527.327
  O     -169.253     182.408    -529.292
  O     -167.158     180.964    -528.987
  H     -168.947     188.267    -524.870
  H     -169.242     181.995    -530.178
  H     -164.420     191.774    -527.407
  H     -167.066     186.136    -529.057
  H     -166.939     187.005    -525.313
  H     -169.329     186.760    -527.268
  H     -164.650     192.074    -525.085
  H     -170.419     185.465    -525.498
  H     -165.490     190.866    -524.166
  H     -168.006     184.088    -524.849
  H     -169.718     182.985    -526.205
  H     -169.388     184.076    -527.587
  P     -169.989     185.384    -522.859
  C     -171.425     187.534    -522.544
  O     -171.406     186.138    -522.779
  O     -169.257     185.860    -521.513
  O     -170.037     183.896    -522.971
  H     -169.395     185.189    -520.816
  H     -172.438     187.878    -522.520
  H     -170.897     188.035    -523.328
  H     -170.954     187.744    -521.606

 6  7  8  9  10  11  12  13  14  15  26  29  33  34 0
 6-311+G(2d,p)
 ****
 36  38  39  40  41 0
 6-311+G(2d,p)
 ****
 1  2  3  4  5  16  17  18  19  20  21  22  23  24  25 0
 3-21G
 ****
 27  28  30  31  32  35  37  42  43  44  45  46  47 0
 3-21G
 ****
 48  49 0
 3-21G
 ****


