%nproc=1
%NoSave
%Mem=1900MB
#P OB98/GEN NMR

erre ene a

0 1
  C       18.475     -23.894      -6.946
  O       19.574     -24.271      -7.750
  H       18.608     -24.323      -5.950
  H       17.541     -24.272      -7.369
  H       18.429     -22.805      -6.853
  P       19.563     -23.861      -9.298
  C       19.537     -21.449     -10.228
  O       20.189     -22.388      -9.388
  C       20.449     -20.251     -10.519
  O       20.853     -19.649      -9.256
  C       21.734     -20.620     -11.279
  O       22.105     -19.483     -12.068
  C       22.709     -20.820     -10.136
  O       24.039     -20.847     -10.591
  C       22.296     -19.669      -9.214
  N       22.802     -19.827      -7.861
  C       23.321     -18.678      -7.257
  O       23.345     -17.611      -7.871
  N       23.828     -18.773      -5.987
  C       23.876     -19.926      -5.397
  N       24.404     -19.954      -4.145
  C       23.392     -21.174      -6.023
  C       22.869     -21.052      -7.241
  O       18.260     -24.031     -10.006
  O       20.703     -24.779      -9.949
  H       24.171     -21.569     -11.246
  H       20.292     -25.503     -10.456
  H       23.472     -22.113      -5.496
  H       22.488     -21.913      -7.782
  H       22.649     -18.707      -9.609
  H       22.530     -21.780      -9.642
  H       21.615     -21.500     -11.915
  H       19.872     -19.492     -11.062
  H       24.733     -19.077      -3.759
  H       18.635     -21.113      -9.708
  H       24.512     -20.794      -3.598
  H       19.243     -21.924     -11.170
  P       21.356     -19.086     -13.429
  C       18.909     -18.760     -14.178
  O       19.840     -18.685     -13.102
  O       21.495     -20.101     -14.518
  O       22.018     -17.697     -13.877
  H       22.005     -17.637     -14.851
  H       17.939     -18.469     -13.832
  H       18.870     -19.764     -14.546
  H       19.219     -18.104     -14.964

 6  7  8  9  10  11  12  13  14  15  16  26  30  31  32  33  35 0
 6-311+G(2d,p)
 ****
 37  38 0
 6-311+G(2d,p)
 ****
 1  2  3  4  5  17  18  19  20  21  22  23  24  25 0
 3-21G
 ****
 27  28  29  34  36  39  40  41  42  43  44  45  46 0
 3-21G
 ****


