%nproc=1
%NoSave
%Mem=1900MB
#P OB98/GEN NMR

erre ene a

0 1
  C      380.336     441.246    1088.804
  O      381.332     440.302    1088.478
  H      379.375     440.737    1088.855
  H      380.283     442.026    1088.042
  H      380.550     441.688    1089.783
  P      382.829     440.858    1088.319
  C      383.581     440.742    1090.794
  O      383.145     441.571    1089.727
  C      384.762     441.386    1091.525
  O      385.962     441.287    1090.744
  C      384.571     442.864    1091.828
  O      383.814     443.035    1093.020
  C      386.010     443.306    1092.025
  O      386.452     442.964    1093.351
  C      386.771     442.459    1090.988
  N      390.006     445.533    1088.452
  C      389.918     445.214    1089.756
  N      388.995     444.428    1090.375
  C      388.113     443.949    1089.487
  C      388.071     444.200    1088.119
  C      389.089     445.023    1087.608
  N      389.174     445.352    1086.266
  N      387.011     443.540    1087.535
  C      386.458     442.861    1088.512
  N      387.062     443.112    1089.722
  O      383.097     441.674    1087.096
  O      383.677     439.504    1088.425
  H      385.811     443.367    1093.975
  H      383.305     438.917    1089.107
  H      390.681     445.638    1090.405
  H      385.627     442.169    1088.405
  H      387.732     442.101    1091.380
  H      386.144     444.381    1091.913
  H      384.135     443.406    1090.979
  H      384.934     440.808    1092.445
  H      383.886     439.753    1090.417
  H      389.806     446.098    1086.011
  H      388.410     445.082    1085.660
  H      382.737     440.599    1091.476
  P      382.754     444.233    1093.157
  C      381.165     442.936    1091.608
  O      381.861     444.164    1091.827
  O      383.355     445.558    1093.476
  O      381.742     443.734    1094.298
  H      381.223     444.479    1094.639
  H      380.605     443.001    1090.699
  H      380.499     442.753    1092.425
  H      381.870     442.134    1091.536

 6  7  8  9  10  11  12  13  14  15  25  28  32  33  34  35 0
 6-311+G(2d,p)
 ****
 36  39  40 0
 6-311+G(2d,p)
 ****
 1  2  3  4  5  16  17  18  19  20  21  22  23  24 0
 3-21G
 ****
 26  27  29  30  31  37  38  41  42  43  44  45  46  47 0
 3-21G
 ****
 48 0
 3-21G
 ****


