%nproc=1
%NoSave
%Mem=1900MB
#P OB98/GEN NMR

erre ene a

0 1
  C     -110.732      43.985      -5.389
  O     -111.629      44.435      -4.386
  P     -113.135      44.855      -4.750
  C     -114.005      46.577      -6.470
  O     -113.000      46.255      -5.519
  C     -113.447      47.548      -7.506
  O     -112.328      46.944      -8.182
  C     -114.432      47.938      -8.601
  O     -115.377      48.884      -8.125
  C     -113.480      48.445      -9.677
  O     -113.059      49.786      -9.381
  C     -112.287      47.478      -9.526
  N     -112.296      46.408     -10.518
  C     -111.742      46.710     -11.766
  O     -111.267      47.820     -11.998
  N     -111.706      45.727     -12.723
  C     -112.199      44.555     -12.469
  N     -112.074      43.601     -13.430
  C     -112.841      44.212     -11.187
  C     -112.850      45.174     -10.266
  O     -114.078      44.867      -3.596
  O     -113.559      43.857      -5.921
  H     -113.843      50.358      -9.491
  H     -113.955      43.012      -5.596
  H     -113.251      43.225     -11.026
  H     -113.285      44.995      -9.291
  H     -111.342      48.027      -9.608
  H     -113.916      48.445     -10.682
  H     -114.965      47.053      -8.968
  H     -113.089      48.443      -6.979
  H     -111.475      43.826     -14.217
  H     -114.841      47.052      -5.946
  H     -112.164      42.616     -13.213
  H     -114.362      45.657      -6.943
  P     -116.746      49.039      -8.945
  C     -116.969      49.012     -11.528
  O     -116.329      49.578     -10.399
  O     -117.454      50.290      -8.243
  O     -117.610      47.823      -8.937
  H     -118.150      49.986      -7.632
  H     -116.755      49.638     -12.397
  H     -118.051      48.971     -11.381
  H     -116.578      48.008     -11.713
  H     -109.786      43.756      -4.945
  H     -110.605      44.752      -6.124
  H     -111.129      43.107      -5.855

 3  4  5  6  7  8  9  10  11  12  13  23  27  28  29  30  32 0
 6-311+G(2d,p)
 ****
 34  35 0
 6-311+G(2d,p)
 ****
 1  2  14  15  16  17  18  19  20  21  22  24  25  26 0
 3-21G
 ****
 31  33  36  37  38  39  40  41  42  43  44  45  46 0
 3-21G
 ****


