%nproc=1
%NoSave
%Mem=1900MB
#P OB98/GEN NMR

erre ene a

0 1
  C     -199.348    -115.202     -25.766
  O     -198.739    -113.988     -26.203
  P     -197.415    -114.078     -27.101
  C     -196.453    -111.812     -26.327
  O     -196.916    -112.588     -27.427
  C     -196.966    -110.365     -26.433
  O     -198.413    -110.371     -26.297
  C     -196.452    -109.417     -25.343
  O     -195.232    -108.717     -25.578
  C     -197.559    -108.365     -25.318
  O     -197.335    -107.397     -26.362
  C     -198.823    -109.162     -25.621
  N     -201.711    -107.267     -21.848
  C     -201.098    -106.679     -22.898
  N     -200.345    -107.256     -23.857
  C     -200.265    -108.583     -23.669
  C     -200.841    -109.321     -22.647
  C     -201.594    -108.607     -21.700
  N     -202.210    -109.203     -20.624
  N     -200.532    -110.658     -22.779
  C     -199.767    -110.722     -23.851
  N     -199.588    -109.497     -24.432
  O     -197.479    -115.004     -28.269
  O     -196.316    -114.576     -26.043
  H     -197.438    -107.873     -27.207
  H     -195.707    -115.198     -26.488
  H     -201.223    -105.603     -22.976
  H     -199.324    -111.627     -24.240
  H     -199.502    -108.627     -26.296
  H     -197.583    -107.808     -24.377
  H     -196.402    -109.926     -24.374
  H     -196.717    -109.967     -27.423
  H     -195.360    -111.813     -26.312
  H     -202.694    -108.614     -19.967
  H     -202.085    -110.193     -20.466
  H     -196.782    -112.308     -25.414
  P     -194.373    -108.110     -24.371
  C     -194.463    -105.748     -25.492
  O     -193.678    -106.791     -24.960
  O     -193.436    -109.066     -23.719
  O     -195.501    -107.520     -23.403
  H     -195.975    -106.752     -23.761
  H     -193.829    -104.868     -25.636
  H     -195.277    -105.487     -24.811
  H     -194.870    -106.050     -26.461
  H     -200.215    -114.976     -25.181
  H     -198.652    -115.757     -25.172
  H     -199.634    -115.784     -26.617

 3  4  5  6  7  8  9  10  11  12  22  25  29  30  31  32 0
 6-311+G(2d,p)
 ****
 33  36  37 0
 6-311+G(2d,p)
 ****
 1  2  13  14  15  16  17  18  19  20  21  23  24  26 0
 3-21G
 ****
 27  28  34  35  38  39  40  41  42  43  44  45  46  47  48 0
 3-21G
 ****


