%nproc=1
%NoSave
%Mem=1900MB
#P OB98/GEN NMR

erre ene a

0 1
  C      116.055      25.100      32.503
  O      116.276      26.506      32.661
  P      117.761      27.065      32.442
  C      118.341      27.887      30.044
  O      117.711      28.171      31.284
  C      118.637      29.186      29.288
  O      119.309      28.932      28.034
  C      117.389      29.985      28.937
  O      116.952      30.786      30.027
  C      117.915      30.874      27.821
  O      118.638      31.988      28.384
  C      118.872      29.933      27.081
  N      119.536      28.535      22.264
  C      120.397      29.178      23.132
  N      121.619      29.489      22.646
  N      120.089      29.490      24.364
  C      118.842      29.102      24.717
  C      117.897      28.461      23.951
  C      118.244      28.135      22.585
  O      117.518      27.578      21.768
  N      116.745      28.240      24.658
  C      116.997      28.729      25.857
  N      118.252      29.279      25.939
  O      118.500      25.838      31.726
  O      118.457      27.471      33.699
  H      118.038      32.415      29.025
  H      119.454      25.863      31.927
  H      119.823      28.324      21.325
  H      116.310      28.707      26.692
  H      119.765      30.449      26.711
  H      117.112      31.295      27.211
  H      121.939      29.235      21.725
  H      116.593      29.333      28.557
  H      122.275      29.932      23.277
  H      119.293      29.803      29.915
  H      117.708      27.238      29.433
  H      119.255      27.317      30.233
  P      115.429      30.633      30.505
  C      115.417      28.388      31.807
  O      115.475      29.798      31.870
  O      114.824      29.603      29.439
  O      114.657      31.907      30.543
  H      113.878      29.790      29.295
  H      115.622      27.986      32.802
  H      116.163      27.998      31.111
  H      114.418      28.067      31.500
  H      115.023      24.879      32.679
  H      116.659      24.563      33.204
  H      116.317      24.807      31.508

 3  4  5  6  7  8  9  10  11  12  23  26  30  31 0
 6-311+G(2d,p)
 ****
 33  35  36  37  38 0
 6-311+G(2d,p)
 ****
 1  2  13  14  15  16  17  18  19  20  21  22  24  25 0
 3-21G
 ****
 27  28  29  32  34  39  40  41  42  43  44  45  46  47  48  49 0
 3-21G
 ****


