%nproc=1
%NoSave
%Mem=1900MB
#P OB98/GEN NMR

erre ene a

0 1
  C      174.278     229.145      75.488
  O      173.010     229.112      74.871
  H      174.400     230.112      75.981
  H      175.060     229.034      74.732
  H      174.374     228.355      76.236
  P      172.437     227.709      74.353
  C      171.679     227.226      76.774
  O      172.355     226.735      75.624
  C      171.842     226.262      77.954
  O      171.171     225.014      77.640
  C      173.316     225.922      78.205
  O      173.568     225.594      79.568
  C      173.523     224.681      77.352
  O      174.623     223.881      77.783
  C      172.168     223.991      77.485
  N      170.734     219.369      75.884
  C      171.161     219.764      77.136
  N      171.210     218.803      78.088
  N      171.529     220.986      77.422
  C      171.500     221.824      76.359
  C      171.118     221.544      75.069
  C      170.680     220.195      74.768
  O      170.316     219.785      73.672
  N      171.230     222.648      74.259
  C      171.682     223.594      75.059
  N      171.838     223.150      76.350
  O      173.659     227.088      73.521
  O      171.191     227.785      73.526
  H      174.861     223.289      77.045
  H      173.334     226.425      72.886
  H      170.433     218.423      75.725
  H      171.894     224.614      74.761
  H      172.141     223.359      78.382
  H      173.740     225.000      76.327
  H      171.124     217.824      77.855
  H      173.988     226.721      77.900
  H      171.802     218.996      78.899
  H      171.350     226.671      78.845
  H      170.625     227.330      76.505
  H      172.046     228.219      77.034
  P      174.560     226.526      80.410
  C      172.659     227.588      81.915
  O      173.752     227.753      81.038
  O      175.479     227.205      79.294
  O      175.370     225.799      81.438
  H      176.408     226.923      79.396
  H      172.283     228.548      82.201
  H      172.978     227.056      82.787
  H      171.887     227.035      81.422

 6  7  8  9  10  11  12  13  14  15  26  29  33  34 0
 6-311+G(2d,p)
 ****
 36  38  39  40  41 0
 6-311+G(2d,p)
 ****
 1  2  3  4  5  16  17  18  19  20  21  22  23  24  25 0
 3-21G
 ****
 27  28  30  31  32  35  37  42  43  44  45  46  47 0
 3-21G
 ****
 48  49 0
 3-21G
 ****


