%nproc=1
%NoSave
%Mem=1900MB
#P OB98/GEN NMR

erre ene a

0 1
  C       37.589     725.970     269.148
  O       37.300     724.818     269.923
  P       37.743     724.836     271.471
  C       35.808     726.365     272.285
  O       37.212     726.221     272.091
  C       35.510     727.456     273.314
  O       36.038     727.035     274.607
  C       36.130     728.828     272.994
  O       35.208     729.819     273.475
  C       37.397     728.804     273.840
  O       37.979     730.086     274.036
  C       36.885     728.104     275.084
  N       41.212     729.261     277.558
  C       40.329     730.032     276.879
  N       39.200     729.652     276.244
  C       38.990     728.327     276.391
  C       39.799     727.420     277.056
  C       40.958     727.937     277.665
  N       41.854     727.145     278.356
  N       39.272     726.151     276.975
  C       38.168     726.279     276.270
  N       37.953     727.583     275.919
  O       39.325     725.060     271.395
  O       37.384     723.603     272.243
  H       38.761     730.018     274.624
  H       39.789     724.537     272.067
  H       40.578     731.082     276.814
  H       37.507     725.479     275.978
  H       36.269     728.773     275.705
  H       38.151     728.187     273.329
  H       36.305     728.987     271.929
  H       34.427     727.553     273.424
  H       35.384     725.422     272.655
  H       42.740     727.567     278.582
  H       41.767     726.151     278.252
  H       35.334     726.597     271.327
  P       35.368     731.326     272.950
  C       33.145     731.462     271.660
  O       34.553     731.355     271.558
  O       36.889     731.324     272.436
  O       35.055     732.394     273.940
  H       37.059     730.576     271.839
  H       32.734     731.559     270.650
  H       32.873     732.342     272.248
  H       32.737     730.560     272.120
  H       37.243     725.822     268.146
  H       38.646     726.138     269.139
  H       37.097     726.819     269.574

 3  4  5  6  7  8  9  10  11  12  22  25  29  30  31  32 0
 6-311+G(2d,p)
 ****
 33  36  37 0
 6-311+G(2d,p)
 ****
 1  2  13  14  15  16  17  18  19  20  21  23  24  26 0
 3-21G
 ****
 27  28  34  35  38  39  40  41  42  43  44  45  46  47  48 0
 3-21G
 ****


