%nproc=1
%NoSave
%Mem=1900MB
#P OB98/GEN NMR

erre ene a

0 1
  C      -74.334      36.399    -233.259
  O      -73.191      37.177    -233.544
  H      -75.103      37.052    -232.837
  H      -74.093      35.627    -232.526
  H      -74.729      35.939    -234.168
  P      -71.970      36.495    -234.328
  C      -71.454      38.444    -235.931
  O      -71.955      37.120    -235.804
  C      -72.125      39.142    -237.113
  O      -73.546      39.257    -236.876
  C      -71.636      40.565    -237.347
  O      -70.357      40.584    -237.952
  C      -72.763      41.117    -238.201
  O      -72.605      40.742    -239.575
  C      -74.003      40.430    -237.588
  N      -74.747      41.327    -236.703
  C      -75.788      42.039    -237.287
  O      -76.100      41.939    -238.471
  N      -76.429      42.932    -236.470
  C      -76.044      43.269    -235.204
  O      -76.488      44.241    -234.602
  C      -74.980      42.441    -234.620
  C      -74.380      41.530    -235.387
  O      -71.916      35.005    -234.267
  O      -70.676      37.154    -233.650
  H      -70.284      36.518    -233.023
  H      -73.310      41.214    -240.064
  H      -77.160      43.484    -236.898
  H      -74.695      42.629    -233.590
  H      -73.567      40.929    -234.989
  H      -74.678      40.079    -238.377
  H      -72.802      42.207    -238.157
  H      -71.612      41.109    -236.396
  H      -71.977      38.525    -238.009
  H      -70.374      38.397    -236.103
  H      -71.644      38.988    -235.000
  P      -69.117      41.260    -237.199
  C      -67.119      39.660    -237.419
  O      -68.197      40.093    -236.596
  O      -69.472      42.340    -236.231
  O      -68.214      41.842    -238.388
  H      -67.999      42.776    -238.191
  H      -66.578      38.884    -236.919
  H      -66.465      40.484    -237.612
  H      -67.505      39.286    -238.344

 6  7  8  9  10  11  12  13  14  15  16  27  31  32  33  34  35 0
 6-311+G(2d,p)
 ****
 36  37 0
 6-311+G(2d,p)
 ****
 1  2  3  4  5  17  18  19  20  21  22  23  24  25 0
 3-21G
 ****
 26  28  29  30  38  39  40  41  42  43  44  45 0
 3-21G
 ****


