%nproc=1
%NoSave
%Mem=1900MB
#P OB98/GEN NMR

erre ene a

0 1
  C     -182.974     330.651     399.115
  O     -181.953     330.743     400.087
  H     -182.758     329.799     398.463
  H     -182.999     331.557     398.507
  H     -183.947     330.491     399.585
  P     -182.112     331.806     401.274
  C     -181.023     332.206     403.577
  O     -181.131     331.339     402.453
  C     -181.260     331.420     404.865
  O     -182.634     330.978     404.927
  C     -180.417     330.154     404.974
  O     -179.074     330.450     405.301
  C     -181.188     329.392     406.039
  O     -180.839     329.848     407.353
  C     -182.651     329.759     405.704
  N     -183.333     328.682     404.988
  C     -183.960     327.721     405.771
  O     -183.966     327.742     406.999
  N     -184.532     326.677     405.089
  C     -184.415     326.447     403.747
  O     -184.727     325.382     403.221
  C     -183.801     327.527     402.962
  C     -183.288     328.575     403.609
  O     -183.513     332.102     401.696
  O     -181.385     333.117     400.707
  H     -182.062     333.751     400.400
  H     -179.890     329.626     407.468
  H     -184.948     325.950     405.652
  H     -183.760     327.416     401.885
  H     -182.800     329.372     403.057
  H     -183.211     329.976     406.624
  H     -180.981     328.323     405.991
  H     -180.466     329.595     404.032
  H     -181.077     332.088     405.715
  H     -181.784     332.993     403.485
  H     -180.033     332.670     403.576
  P     -177.932     329.343     405.112
  C     -175.396     329.256     404.699
  O     -176.534     330.093     404.888
  O     -178.244     328.280     404.112
  O     -177.762     328.707     406.574
  H     -177.802     327.735     406.503
  H     -174.526     329.863     404.560
  H     -175.544     328.642     403.835
  H     -175.264     328.634     405.560

 6  7  8  9  10  11  12  13  14  15  16  27  31  32  33  34  35 0
 6-311+G(2d,p)
 ****
 36  37 0
 6-311+G(2d,p)
 ****
 1  2  3  4  5  17  18  19  20  21  22  23  24  25 0
 3-21G
 ****
 26  28  29  30  38  39  40  41  42  43  44  45 0
 3-21G
 ****


