%nproc=1
%NoSave
%Mem=1900MB
#P OB98/GEN NMR

erre ene a

0 1
  C      373.533    -245.501    1577.523
  O      372.838    -244.889    1576.459
  P      373.341    -245.106    1574.955
  C      375.639    -245.654    1573.965
  O      374.927    -244.889    1574.919
  C      377.147    -245.372    1574.078
  O      377.626    -245.656    1575.420
  C      378.006    -246.210    1573.128
  O      377.938    -245.718    1571.802
  C      379.387    -246.089    1573.802
  O      380.008    -244.833    1573.411
  C      379.014    -246.052    1575.294
  N      382.403    -248.964    1577.767
  C      382.517    -247.790    1577.082
  N      381.595    -247.098    1576.442
  C      380.414    -247.734    1576.478
  C      380.134    -248.952    1577.073
  C      381.186    -249.570    1577.771
  N      381.057    -250.724    1578.514
  N      378.818    -249.313    1576.861
  C      378.300    -248.334    1576.146
  N      379.223    -247.334    1575.938
  O      372.579    -244.350    1573.915
  O      373.178    -246.695    1574.728
  H      380.107    -244.863    1572.451
  H      372.552    -246.856    1573.983
  H      383.533    -247.340    1577.113
  H      377.280    -248.300    1575.787
  H      379.595    -245.302    1575.844
  H      380.072    -246.888    1573.521
  H      377.699    -247.265    1573.175
  H      377.309    -244.298    1573.898
  H      375.292    -245.368    1572.960
  H      381.837    -251.005    1579.096
  H      380.114    -251.035    1578.780
  H      375.435    -246.717    1574.105
  P      378.463    -246.623    1570.599
  C      380.636    -247.957    1570.133
  O      380.033    -246.874    1570.825
  O      378.082    -246.165    1569.219
  O      377.835    -248.067    1570.916
  H      377.651    -248.554    1570.086
  H      380.374    -248.890    1570.642
  H      381.686    -247.836    1570.134
  H      380.243    -247.974    1569.088
  H      373.061    -245.249    1578.449
  H      374.546    -245.155    1577.533
  H      373.520    -246.563    1577.393

 3  4  5  6  7  8  9  10  11  12  22  25  29  30  31  32 0
 6-311+G(2d,p)
 ****
 33  36  37 0
 6-311+G(2d,p)
 ****
 1  2  13  14  15  16  17  18  19  20  21  23  24  26 0
 3-21G
 ****
 27  28  34  35  38  39  40  41  42  43  44  45  46  47  48 0
 3-21G
 ****


