%nproc=1
%NoSave
%Mem=1900MB
#P OB98/GEN NMR

erre ene a

0 1
  C     -239.487    -200.567    -164.509
  O     -239.598    -200.520    -163.096
  P     -241.064    -200.473    -162.453
  C     -241.113    -202.892    -161.508
  O     -241.649    -201.968    -162.445
  C     -242.227    -203.524    -160.672
  O     -241.660    -204.523    -159.784
  C     -242.986    -202.517    -159.799
  O     -244.360    -202.925    -159.692
  C     -242.355    -202.688    -158.433
  O     -243.235    -202.261    -157.392
  C     -242.063    -204.191    -158.438
  N     -241.097    -206.746    -154.188
  C     -242.198    -206.811    -155.019
  N     -243.214    -207.602    -154.611
  N     -242.291    -206.164    -156.151
  C     -241.201    -205.405    -156.426
  C     -240.045    -205.272    -155.686
  C     -239.962    -205.986    -154.433
  O     -239.030    -205.950    -153.638
  N     -239.148    -204.444    -156.307
  C     -239.768    -204.039    -157.395
  N     -241.031    -204.566    -157.493
  O     -241.926    -199.737    -163.583
  O     -241.152    -199.743    -161.154
  H     -243.290    -201.289    -157.450
  H     -242.117    -198.821    -163.310
  H     -241.078    -207.258    -153.320
  H     -239.367    -203.350    -158.128
  H     -242.958    -204.776    -158.208
  H     -241.434    -202.099    -158.369
  H     -243.232    -208.072    -153.719
  H     -242.940    -201.483    -160.155
  H     -244.051    -207.632    -155.181
  H     -242.917    -204.050    -161.344
  H     -240.425    -202.367    -160.844
  H     -240.553    -203.668    -162.039
  P     -245.435    -201.740    -159.564
  C     -245.481    -201.253    -162.120
  O     -245.180    -200.783    -160.823
  O     -244.898    -200.886    -158.321
  O     -246.841    -202.207    -159.373
  H     -245.636    -200.405    -157.900
  H     -246.273    -200.633    -162.549
  H     -245.808    -202.297    -162.118
  H     -244.587    -201.164    -162.746
  H     -238.454    -200.594    -164.785
  H     -239.946    -199.698    -164.932
  H     -239.978    -201.444    -164.876

 3  4  5  6  7  8  9  10  11  12  23  26  30  31 0
 6-311+G(2d,p)
 ****
 33  35  36  37  38 0
 6-311+G(2d,p)
 ****
 1  2  13  14  15  16  17  18  19  20  21  22  24  25 0
 3-21G
 ****
 27  28  29  32  34  39  40  41  42  43  44  45  46  47  48  49 0
 3-21G
 ****


