%nproc=1
%NoSave
%Mem=1900MB
#P OB98/GEN NMR

erre ene a

0 1
  C     -110.377    -105.298     -31.902
  O     -109.553    -105.495     -30.770
  H     -111.376    -105.007     -31.561
  H     -110.462    -106.221     -32.482
  H     -109.976    -104.499     -32.531
  P     -108.053    -106.007     -30.997
  C     -108.906    -108.450     -31.006
  O     -108.166    -107.446     -31.694
  C     -109.187    -109.637     -31.927
  O     -110.083    -109.245     -32.987
  C     -107.949    -110.198     -32.616
  O     -107.177    -110.961     -31.709
  C     -108.592    -110.983     -33.747
  O     -109.108    -112.239     -33.276
  C     -109.749    -110.036     -34.153
  N     -109.427    -109.176     -35.289
  C     -110.348    -109.181     -36.344
  O     -111.353    -109.892     -36.288
  N     -110.092    -108.390     -37.438
  C     -109.041    -107.631     -37.461
  N     -108.848    -106.869     -38.572
  C     -108.064    -107.574     -36.357
  C     -108.310    -108.370     -35.318
  O     -107.152    -105.969     -29.799
  O     -107.502    -105.075     -32.178
  H     -109.629    -112.612     -34.015
  H     -107.026    -104.305     -31.813
  H     -107.206    -106.919     -36.415
  H     -107.641    -108.387     -34.463
  H     -110.647    -110.615     -34.409
  H     -107.887    -111.208     -34.550
  H     -107.354    -109.386     -33.052
  H     -109.696    -110.410     -31.335
  H     -109.557    -106.930     -39.296
  H     -109.847    -107.992     -30.682
  H     -108.162    -106.131     -38.633
  H     -108.363    -108.787     -30.115
  P     -105.578    -111.040     -31.828
  C     -105.794    -113.394     -32.838
  O     -105.280    -112.083     -33.012
  O     -104.862    -111.317     -30.550
  O     -105.179    -109.639     -32.493
  H     -105.211    -108.916     -31.817
  H     -105.534    -113.994     -33.685
  H     -106.859    -113.350     -32.745
  H     -105.376    -113.826     -31.953

 6  7  8  9  10  11  12  13  14  15  16  26  30  31  32  33  35 0
 6-311+G(2d,p)
 ****
 37  38 0
 6-311+G(2d,p)
 ****
 1  2  3  4  5  17  18  19  20  21  22  23  24  25 0
 3-21G
 ****
 27  28  29  34  36  39  40  41  42  43  44  45  46 0
 3-21G
 ****


