%nproc=1
%NoSave
%Mem=1900MB
#P OB98/GEN NMR

erre ene a

0 1
  C     -136.262      12.458      97.616
  O     -137.020      13.622      97.278
  P     -138.622      13.467      97.281
  C     -139.126      15.751      98.420
  O     -139.186      14.333      98.507
  C     -138.587      16.347      99.719
  O     -137.243      15.910      99.972
  C     -138.518      17.869      99.721
  O     -139.785      18.456      99.983
  C     -137.564      18.117     100.882
  O     -138.283      18.067     102.129
  C     -136.593      16.928     100.774
  N     -131.548      16.931     101.264
  C     -132.525      16.491     102.140
  N     -132.086      15.951     103.300
  N     -133.803      16.574     101.899
  C     -134.090      17.110     100.688
  C     -133.216      17.579      99.735
  C     -131.800      17.511     100.028
  O     -130.899      17.914      99.301
  N     -133.882      18.040      98.629
  C     -135.152      17.822      98.898
  N     -135.334      17.271     100.141
  O     -138.830      11.955      97.771
  O     -139.257      13.718      95.956
  H     -138.796      18.897     102.195
  H     -139.675      11.606      97.425
  H     -130.577      16.850     101.503
  H     -135.975      18.041      98.228
  H     -136.377      16.487     101.754
  H     -137.080      19.100     100.832
  H     -131.118      15.792     103.517
  H     -138.074      18.245      98.789
  H     -132.791      15.590     103.937
  H     -139.230      16.005     100.543
  H     -140.121      16.152      98.219
  H     -138.494      16.029      97.570
  P     -140.532      19.158      98.747
  C     -143.010      18.397      98.914
  O     -141.731      18.168      98.354
  O     -139.487      18.995      97.547
  O     -140.905      20.581      98.979
  H     -139.594      19.723      96.906
  H     -143.263      19.459      98.901
  H     -143.032      18.025      99.944
  H     -143.754      17.854      98.327
  H     -135.218      12.689      97.578
  H     -136.480      11.676      96.919
  H     -136.521      12.138      98.604

 3  4  5  6  7  8  9  10  11  12  23  26  30  31  33  0
 6-311+G(2d,p)
 ****
 35  36  37  38 0
 6-311+G(2d,p)
 ****
 1  2  13  14  15  16  17  18  19  20  21  22  24  25  27  28  29 0
 3-21G
 ****
 32  34  39  40  41  42  43  44  45  46  47  48  49 0
 3-21G
 ****


