%nproc=1
%NoSave
%Mem=1900MB
#P OB98/GEN NMR

erre ene a

0 1
  C      596.416    -461.796     -78.923
  O      597.333    -462.864     -78.800
  H      595.400    -462.202     -78.922
  H      596.586    -461.280     -79.872
  H      596.519    -461.094     -78.093
  P      598.838    -462.494     -78.385
  C      599.654    -464.788     -77.486
  O      599.703    -463.840     -78.542
  C      600.461    -466.035     -77.853
  O      599.757    -466.749     -78.918
  C      601.884    -465.739     -78.352
  O      602.761    -466.773     -77.879
  C      601.749    -465.887     -79.860
  O      602.993    -466.175     -80.486
  C      600.729    -467.012     -79.941
  N      601.614    -468.457     -84.670
  C      602.330    -468.685     -83.512
  N      603.495    -469.354     -83.636
  N      601.936    -468.291     -82.328
  C      600.741    -467.655     -82.345
  C      599.940    -467.359     -83.419
  C      600.391    -467.786     -84.726
  O      599.816    -467.593     -85.792
  N      598.836    -466.642     -83.028
  C      598.986    -466.485     -81.723
  N      600.130    -467.083     -81.264
  O      598.728    -462.302     -76.799
  O      599.409    -461.289     -79.053
  H      603.407    -466.921     -80.012
  H      598.597    -461.357     -76.590
  H      601.969    -468.770     -85.556
  H      598.315    -465.937     -81.078
  H      601.175    -468.002     -79.744
  H      601.350    -464.959     -80.287
  H      603.850    -469.721     -84.504
  H      602.263    -464.762     -78.047
  H      604.013    -469.569     -82.789
  H      600.484    -466.705     -76.981
  H      598.610    -465.075     -77.315
  H      600.048    -464.338     -76.575
  P      603.665    -466.461     -76.594
  C      603.276    -468.907     -75.789
  O      604.204    -467.849     -75.997
  O      602.590    -465.987     -75.502
  O      604.707    -465.416     -76.823
  H      602.984    -465.301     -74.927
  H      603.788    -469.757     -75.390
  H      602.820    -469.170     -76.721
  H      602.521    -468.589     -75.100

 6  7  8  9  10  11  12  13  14  15  26  29  33  34 0
 6-311+G(2d,p)
 ****
 36  38  39  40  41 0
 6-311+G(2d,p)
 ****
 1  2  3  4  5  16  17  18  19  20  21  22  23  24  25 0
 3-21G
 ****
 27  28  30  31  32  35  37  42  43  44  45  46  47 0
 3-21G
 ****
 48  49 0
 3-21G
 ****


