%nproc=1
%NoSave
%Mem=1900MB
#P OB98/GEN NMR

erre ene a

0 1
  C      -76.959     175.812      87.853
  O      -78.301     175.779      87.413
  H      -76.818     175.036      88.609
  H      -76.740     176.784      88.302
  H      -76.275     175.622      87.021
  P      -78.679     176.673      86.137
  C      -78.408     174.765      84.391
  O      -79.289     175.669      85.041
  C      -78.631     174.814      82.880
  O      -77.638     173.962      82.239
  C      -80.014     174.320      82.437
  O      -80.437     175.104      81.318
  C      -79.740     172.901      81.975
  O      -80.700     172.398      81.057
  C      -78.345     173.062      81.362
  N      -77.637     171.790      81.235
  C      -78.095     170.898      80.270
  O      -78.992     171.135      79.465
  N      -77.470     169.677      80.253
  C      -76.480     169.266      81.095
  O      -75.975     168.151      81.042
  C      -76.046     170.248      82.098
  C      -76.637     171.445      82.122
  O      -77.250     177.058      85.532
  O      -79.523     177.871      86.419
  H      -76.924     177.888      85.927
  H      -80.620     171.422      81.055
  H      -77.790     169.019      79.561
  H      -75.270     169.954      82.791
  H      -76.355     172.185      82.863
  H      -78.413     173.546      80.381
  H      -79.711     172.227      82.838
  H      -80.776     174.356      83.223
  H      -78.450     175.837      82.530
  H      -78.603     173.749      84.747
  H      -77.374     175.033      84.634
  P      -81.903     175.755      81.385
  C      -81.681     177.414      83.402
  O      -81.694     177.223      81.994
  O      -82.557     174.918      82.578
  O      -82.631     175.686      80.086
  H      -81.920     174.687      83.275
  H      -81.531     178.451      83.620
  H      -80.887     176.841      83.832
  H      -82.615     177.094      83.814

 6  7  8  9  10  11  12  13  14  15  16  27  31  32  33  34  35 0
 6-311+G(2d,p)
 ****
 36  37 0
 6-311+G(2d,p)
 ****
 1  2  3  4  5  17  18  19  20  21  22  23  24  25 0
 3-21G
 ****
 26  28  29  30  38  39  40  41  42  43  44  45 0
 3-21G
 ****


