%nproc=1
%NoSave
%Mem=1900MB
#P OB98/GEN NMR

erre ene a

0 1
  C       34.196     -36.905     -67.905
  O       34.591     -35.546     -67.841
  P       34.902     -34.775     -69.210
  C       33.492     -34.081     -71.282
  O       33.623     -34.945     -70.164
  C       32.762     -34.793     -72.423
  O       33.625     -35.835     -72.972
  C       31.447     -35.465     -72.001
  O       30.542     -35.379     -73.112
  C       31.868     -36.909     -71.799
  O       30.780     -37.819     -71.838
  C       32.869     -37.061     -72.949
  N       33.737     -38.228     -72.796
  C       33.263     -39.444     -73.276
  O       32.167     -39.592     -73.815
  N       34.075     -40.526     -73.062
  C       35.240     -40.529     -72.354
  O       35.861     -41.554     -72.097
  C       35.692     -39.215     -71.870
  C       34.934     -38.143     -72.110
  O       36.017     -35.690     -69.902
  O       35.361     -33.366     -69.041
  H       30.271     -37.634     -72.648
  H       36.904     -35.308     -69.765
  H       33.752     -41.414     -73.414
  H       36.624     -39.177     -71.321
  H       35.232     -37.164     -71.747
  H       32.337     -37.128     -73.907
  H       32.359     -37.012     -70.825
  H       30.997     -35.026     -71.107
  H       32.579     -34.068     -73.226
  H       34.485     -33.783     -71.622
  H       32.953     -33.175     -70.985
  P       28.971     -35.522     -72.812
  C       27.207     -34.063     -71.551
  O       28.555     -34.260     -71.920
  O       28.975     -36.744     -71.775
  O       28.147     -35.777     -74.032
  H       29.681     -36.669     -71.112
  H       26.692     -35.013     -71.387
  H       26.694     -33.506     -72.337
  H       27.175     -33.481     -70.626
  H       34.026     -37.274     -66.915
  H       34.968     -37.479     -68.372
  H       33.295     -36.988     -68.476

 3  4  5  6  7  8  9  10  11  12  13  23  28  29  30  31  32 0
 6-311+G(2d,p)
 ****
 33  34 0
 6-311+G(2d,p)
 ****
 1  2  14  15  16  17  18  19  20  21  22  24  25  26 0
 3-21G
 ****
 27  35  36  37  38  39  40  41  42  43  44  45 0
 3-21G
 ****


