%nproc=1
%NoSave
%Mem=1900MB
#P OB98/GEN NMR

erre ene a

0 1
  C       21.320     126.772      37.934
  O       20.201     126.140      37.343
  H       21.424     127.772      37.505
  H       22.230     126.202      37.727
  H       21.171     126.865      39.013
  P       19.892     124.638      37.814
  C       21.443     122.591      38.140
  O       21.236     123.830      37.475
  C       22.381     121.699      37.331
  O       21.706     121.194      36.166
  C       23.636     122.402      36.826
  O       24.631     122.428      37.837
  C       24.037     121.488      35.677
  O       24.741     120.342      36.194
  C       22.679     121.052      35.100
  N       23.605     122.281      30.202
  C       24.357     121.640      31.122
  N       24.072     121.396      32.420
  C       22.861     121.881      32.741
  C       21.983     122.560      31.907
  C       22.394     122.752      30.578
  N       21.625     123.408      29.641
  N       20.835     122.912      32.585
  C       20.993     122.403      33.790
  N       22.217     121.802      33.946
  O       18.621     124.047      37.304
  O       19.977     124.793      39.406
  H       24.922     119.757      35.435
  H       20.716     125.377      39.653
  H       25.319     121.276      30.772
  H       20.247     122.423      34.577
  H       22.686     119.996      34.802
  H       24.703     121.977      34.965
  H       23.413     123.399      36.431
  H       22.645     120.834      37.954
  H       20.487     122.078      38.293
  H       22.073     123.668      28.777
  H       20.784     123.868      29.960
  H       21.878     122.810      39.121
  P       25.398     123.788      38.208
  C       26.794     125.475      36.858
  O       26.220     124.173      36.885
  O       26.188     123.728      39.468
  O       24.245     124.894      38.248
  H       24.562     125.689      38.717
  H       27.314     125.617      35.933
  H       27.480     125.579      37.672
  H       26.020     126.208      36.948

 6  7  8  9  10  11  12  13  14  15  25  28  32  33  34  35 0
 6-311+G(2d,p)
 ****
 36  39  40 0
 6-311+G(2d,p)
 ****
 1  2  3  4  5  16  17  18  19  20  21  22  23  24 0
 3-21G
 ****
 26  27  29  30  31  37  38  41  42  43  44  45  46  47 0
 3-21G
 ****
 48 0
 3-21G
 ****


