%nproc=1
%NoSave
%Mem=1900MB
#P OB98/GEN NMR

erre ene a

0 1
  C     -143.756      80.424      -9.161
  O     -144.623      79.758      -8.268
  H     -142.794      80.575      -8.664
  H     -144.164      81.401      -9.431
  H     -143.593      79.825     -10.060
  P     -146.112      79.418      -8.759
  C     -147.087      80.494      -6.614
  O     -146.961      79.318      -7.396
  C     -148.304      80.391      -5.699
  O     -149.522      80.250      -6.460
  C     -148.299      79.191      -4.759
  O     -147.388      79.311      -3.681
  C     -149.745      79.213      -4.299
  O     -149.932      80.268      -3.340
  C     -150.472      79.526      -5.628
  N     -150.939      78.321      -6.311
  C     -152.312      78.058      -6.249
  O     -153.069      78.809      -5.637
  N     -152.797      76.924      -6.856
  C     -151.980      76.112      -7.452
  N     -152.514      75.001      -8.030
  C     -150.524      76.340      -7.524
  C     -150.077      77.451      -6.943
  O     -146.247      78.254      -9.686
  O     -146.655      80.791      -9.375
  H     -149.680      81.100      -3.781
  H     -147.573      80.633      -9.704
  H     -149.883      75.619      -8.006
  H     -149.018      77.685      -6.948
  H     -151.327      80.191      -5.458
  H     -150.061      78.284      -3.822
  H     -148.125      78.261      -5.313
  H     -148.379      81.336      -5.144
  H     -153.514      74.871      -7.964
  H     -147.178      81.348      -7.292
  H     -151.944      74.278      -8.448
  H     -146.198      80.628      -5.992
  P     -146.045      78.430      -3.759
  C     -146.506      77.675      -1.302
  O     -145.579      78.186      -2.247
  O     -144.971      79.460      -4.340
  O     -146.151      77.183      -4.579
  H     -144.854      79.332      -5.301
  H     -146.027      77.576      -0.350
  H     -146.855      76.717      -1.627
  H     -147.335      78.346      -1.216

 6  7  8  9  10  11  12  13  14  15  16  26  30  31  32  33  35 0
 6-311+G(2d,p)
 ****
 37  38 0
 6-311+G(2d,p)
 ****
 1  2  3  4  5  17  18  19  20  21  22  23  24  25 0
 3-21G
 ****
 27  28  29  34  36  39  40  41  42  43  44  45  46 0
 3-21G
 ****


