%nproc=1
%NoSave
%Mem=1900MB
#P OB98/GEN NMR

erre ene a

0 1
  C      201.243      54.322     149.601
  O      202.090      53.467     148.827
  P      202.761      52.214     149.580
  C      204.930      51.922     151.019
  O      204.180      52.739     150.132
  C      206.413      52.320     151.004
  O      206.997      51.989     149.705
  C      206.675      53.813     151.267
  O      207.881      53.890     152.043
  C      206.909      54.373     149.875
  O      207.642      55.591     149.905
  C      207.635      53.194     149.215
  N      207.609      53.256     147.753
  C      207.972      54.470     147.172
  O      208.229      55.479     147.826
  N      207.983      54.488     145.799
  C      207.599      53.467     144.978
  O      207.632      53.541     143.754
  C      207.117      52.252     145.656
  C      207.146      52.208     146.989
  O      203.140      51.267     148.349
  O      201.861      51.597     150.600
  H      203.438      51.756     147.560
  H      207.296      56.150     150.629
  H      208.276      55.353     145.352
  H      206.752      51.440     145.036
  H      206.775      51.339     147.519
  H      208.685      53.161     149.539
  H      205.944      54.558     149.381
  H      205.853      54.300     151.806
  H      206.938      51.712     151.753
  H      204.843      50.874     150.721
  H      204.507      52.007     152.028
  P      207.745      54.059     153.639
  C      208.847      55.720     155.347
  O      208.402      55.469     154.028
  O      208.855      52.998     154.131
  O      206.388      53.769     154.200
  H      209.696      53.083     153.651
  H      209.466      56.625     155.340
  H      209.450      54.891     155.720
  H      207.988      55.881     156.001
  H      200.867      55.108     148.980
  H      201.804      54.743     150.409
  H      200.425      53.754     149.992

 3  4  5  6  7  8  9  10  11  12  13  24  28  29  30  31  32 0
 6-311+G(2d,p)
 ****
 33  34 0
 6-311+G(2d,p)
 ****
 1  2  14  15  16  17  18  19  20  21  22  23  25  26  27 0
 3-21G
 ****
 35  36  37  38  39  40  41  42  43  44  45 0
 3-21G
 ****


