%nproc=1
%NoSave
%Mem=1900MB
#P OB98/GEN NMR

erre ene a

0 1
  C       19.109     -13.213      37.790
  O       19.714     -12.336      38.717
  H       19.508     -12.997      36.795
  H       18.028     -13.057      37.772
  H       19.330     -14.254      38.037
  P       19.429     -12.549      40.279
  C       18.543     -10.134      40.430
  O       18.283     -11.508      40.691
  C       17.321      -9.489      39.782
  O       16.836     -10.320      38.704
  C       16.139      -9.320      40.728
  O       16.338      -8.245      41.624
  C       15.004      -9.134      39.736
  O       14.940      -7.780      39.271
  C       15.415     -10.085      38.590
  N       14.667     -11.342      38.626
  C       13.372     -11.301      38.121
  O       12.857     -10.287      37.653
  N       12.656     -12.462      38.226
  C       13.052     -13.583      38.899
  O       12.291     -14.502      39.182
  C       14.449     -13.591      39.356
  C       15.178     -12.482      39.213
  O       20.633     -12.550      41.161
  O       18.667     -13.958      40.332
  H       19.292     -14.650      40.620
  H       14.781      -7.232      40.067
  H       11.700     -12.428      37.900
  H       14.824     -14.489      39.831
  H       16.202     -12.451      39.574
  H       15.249      -9.607      37.617
  H       14.038      -9.379      40.181
  H       15.975     -10.251      41.284
  H       17.623      -8.523      39.358
  H       19.398     -10.061      39.748
  H       18.794      -9.633      41.371
  P       16.566      -8.524      43.184
  C       14.254      -7.515      43.678
  O       15.131      -8.616      43.892
  O       17.540      -7.617      43.858
  O       17.080     -10.042      43.234
  H       17.889     -10.082      43.779
  H       13.333      -7.687      44.195
  H       14.061      -7.411      42.631
  H       14.709      -6.620      44.047

 6  7  8  9  10  11  12  13  14  15  16  27  31  32  33  34  35 0
 6-311+G(2d,p)
 ****
 36  37 0
 6-311+G(2d,p)
 ****
 1  2  3  4  5  17  18  19  20  21  22  23  24  25 0
 3-21G
 ****
 26  28  29  30  38  39  40  41  42  43  44  45 0
 3-21G
 ****


