%nproc=1
%NoSave
%Mem=1900MB
#P OB98/GEN NMR

erre ene a

0 1
  C      -96.155    -671.312    -444.762
  O      -97.374    -671.996    -444.524
  H      -96.114    -671.030    -445.816
  H      -95.300    -671.958    -444.534
  H      -96.113    -670.406    -444.150
  P      -97.614    -672.531    -443.030
  C      -96.759    -674.897    -443.600
  O      -97.875    -674.108    -443.211
  C      -97.220    -676.263    -444.113
  O      -97.790    -677.002    -443.004
  C      -98.284    -676.177    -445.207
  O      -98.052    -677.203    -446.169
  C      -99.581    -676.457    -444.464
  O     -100.595    -676.989    -445.318
  C      -99.112    -677.418    -443.373
  N     -102.579    -680.099    -440.755
  C     -101.767    -680.431    -441.777
  N     -100.858    -679.657    -442.413
  C     -100.798    -678.433    -441.844
  C     -101.560    -677.953    -440.795
  C     -102.496    -678.843    -440.248
  N     -103.345    -678.509    -439.218
  N     -101.235    -676.634    -440.532
  C     -100.288    -676.330    -441.396
  N      -99.998    -677.386    -442.220
  O      -98.643    -671.800    -442.237
  O      -96.129    -672.497    -442.428
  H     -100.323    -677.880    -445.606
  H      -95.474    -672.851    -443.065
  H     -101.863    -681.447    -442.154
  H      -99.790    -675.370    -441.471
  H      -99.068    -678.464    -443.717
  H      -99.961    -675.524    -444.021
  H      -98.302    -675.203    -445.697
  H      -96.345    -676.828    -444.449
  H      -96.076    -675.034    -442.750
  H     -103.979    -679.211    -438.868
  H     -103.289    -677.581    -438.806
  H      -96.223    -674.360    -444.387
  P      -97.273    -676.821    -447.521
  C      -99.295    -676.862    -449.136
  O      -98.062    -677.477    -448.761
  O      -95.798    -677.040    -447.503
  O      -97.619    -675.267    -447.686
  H      -96.833    -674.804    -448.041
  H      -99.718    -677.388    -449.966
  H      -99.116    -675.844    -449.412
  H      -99.975    -676.894    -448.310

 6  7  8  9  10  11  12  13  14  15  25  28  32  33  34  35 0
 6-311+G(2d,p)
 ****
 36  39  40 0
 6-311+G(2d,p)
 ****
 1  2  3  4  5  16  17  18  19  20  21  22  23  24 0
 3-21G
 ****
 26  27  29  30  31  37  38  41  42  43  44  45  46  47 0
 3-21G
 ****
 48 0
 3-21G
 ****


