%nproc=1
%NoSave
%Mem=1900MB
#P OB98/GEN NMR

erre ene a

0 1
  C     -152.382    -166.770     249.765
  O     -151.303    -165.885     249.527
  H     -152.332    -167.114     250.802
  H     -152.324    -167.643     249.107
  H     -153.335    -166.257     249.613
  P     -151.069    -165.363     248.028
  C     -151.613    -162.849     248.321
  O     -152.059    -164.117     247.849
  C     -152.807    -161.938     248.585
  O     -153.579    -162.433     249.696
  C     -152.408    -160.516     248.958
  O     -151.991    -159.791     247.818
  C     -153.682    -160.025     249.620
  O     -154.656    -159.633     248.647
  C     -154.139    -161.289     250.383
  N     -153.743    -161.277     251.789
  C     -154.756    -160.978     252.708
  O     -155.900    -160.748     252.323
  N     -154.429    -160.923     254.042
  C     -153.213    -161.160     254.423
  N     -152.960    -161.091     255.757
  C     -152.121    -161.494     253.488
  C     -152.453    -161.526     252.197
  O     -151.160    -166.384     246.936
  O     -149.625    -164.675     248.090
  H     -155.444    -159.354     249.155
  H     -148.929    -165.326     247.888
  H     -151.124    -161.692     253.854
  H     -151.711    -161.766     251.444
  H     -155.233    -161.391     250.334
  H     -153.492    -159.167     250.261
  H     -151.615    -160.536     249.716
  H     -153.453    -161.945     247.696
  H     -153.736    -160.848     256.361
  H     -150.974    -162.419     247.542
  H     -152.076    -161.342     256.178
  H     -151.016    -162.967     249.233
  P     -150.520    -159.152     247.747
  C     -149.897    -159.867     245.350
  O     -149.691    -160.092     246.744
  O     -149.874    -158.897     249.069
  O     -150.750    -157.822     246.884
  H     -151.204    -157.121     247.415
  H     -149.295    -160.549     244.786
  H     -149.622    -158.862     245.106
  H     -150.929    -160.022     245.112

 6  7  8  9  10  11  12  13  14  15  16  26  30  31  32  33  35 0
 6-311+G(2d,p)
 ****
 37  38 0
 6-311+G(2d,p)
 ****
 1  2  3  4  5  17  18  19  20  21  22  23  24  25 0
 3-21G
 ****
 27  28  29  34  36  39  40  41  42  43  44  45  46 0
 3-21G
 ****


