%nproc=1
%NoSave
%Mem=1900MB
#P OB98/GEN NMR

erre ene a

0 1
  C      689.501     312.603      99.654
  O      690.184     311.542     100.293
  P      689.434     310.774     101.481
  C      688.628     311.689     103.812
  O      689.591     311.718     102.768
  C      688.781     312.919     104.715
  O      688.762     314.112     103.909
  C      687.669     313.095     105.738
  O      687.819     312.223     106.851
  C      687.820     314.583     106.076
  O      688.893     314.772     107.019
  C      688.199     315.178     104.709
  N      687.070     315.817     104.027
  C      686.658     317.039     104.544
  O      687.177     317.573     105.522
  N      685.584     317.619     103.910
  C      684.872     317.081     102.871
  O      683.893     317.624     102.374
  C      685.343     315.779     102.391
  C      686.405     315.218     102.982
  O      690.448     309.561     101.740
  O      688.039     310.373     101.141
  H      691.362     309.795     101.487
  H      689.701     314.412     106.586
  H      685.275     318.520     104.258
  H      684.804     315.312     101.581
  H      686.762     314.245     102.640
  H      688.997     315.926     104.836
  H      686.914     315.001     106.524
  H      686.692     312.930     105.267
  H      689.760     312.857     105.214
  H      688.779     310.775     104.415
  H      687.624     311.648     103.387
  P      686.537     312.055     107.812
  C      685.308     313.988     109.061
  O      686.525     313.341     108.759
  O      687.022     310.860     108.769
  O      685.266     311.779     107.074
  H      687.960     310.950     109.049
  H      685.442     314.590     109.974
  H      684.497     313.268     109.234
  H      685.031     314.651     108.239
  H      690.122     313.017      98.887
  H      689.268     313.361     100.372
  H      688.596     312.234      99.219

 3  4  5  6  7  8  9  10  11  12  13  24  28  29  30  31  32 0
 6-311+G(2d,p)
 ****
 33  34 0
 6-311+G(2d,p)
 ****
 1  2  14  15  16  17  18  19  20  21  22  23  25  26  27 0
 3-21G
 ****
 35  36  37  38  39  40  41  42  43  44  45 0
 3-21G
 ****


