%nproc=1
%NoSave
%Mem=1900MB
#P OB98/GEN NMR

erre ene a

0 1
  C      -46.963       8.670    1357.673
  O      -46.827       9.206    1358.975
  P      -48.133       9.525    1359.849
  C      -48.598      11.755    1358.668
  O      -48.297      11.118    1359.892
  C      -48.548      13.284    1358.829
  O      -49.540      13.710    1359.782
  C      -47.214      13.802    1359.357
  O      -46.225      13.822    1358.327
  C      -47.619      15.180    1359.864
  O      -47.662      16.132    1358.767
  C      -49.025      14.922    1360.405
  N      -50.056      17.300    1364.803
  C      -49.969      17.756    1363.533
  N      -49.651      17.064    1362.412
  C      -49.383      15.778    1362.718
  C      -49.395      15.171    1363.958
  C      -49.785      16.002    1365.043
  N      -49.931      15.531    1366.328
  N      -49.037      13.851    1363.875
  C      -48.796      13.644    1362.578
  N      -49.056      14.771    1361.840
  O      -48.212       8.829    1361.170
  O      -49.346       9.076    1358.896
  H      -46.755      16.264    1358.463
  H      -49.860       8.374    1359.346
  H      -50.190      18.809    1363.381
  H      -48.456      12.718    1362.161
  H      -49.723      15.726    1360.138
  H      -46.919      15.577    1360.592
  H      -46.875      13.189    1360.200
  H      -48.789      13.742    1357.859
  H      -49.591      11.451    1358.346
  H      -50.339      16.165    1367.004
  H      -50.023      14.542    1366.478
  H      -47.882      11.441    1357.900
  P      -44.760      13.235    1358.626
  C      -44.249      14.673    1360.693
  O      -43.942      14.415    1359.336
  O      -44.069      12.581    1357.476
  O      -45.004      12.206    1359.831
  H      -44.358      11.471    1359.760
  H      -45.182      15.255    1360.747
  H      -43.445      15.262    1361.129
  H      -44.363      13.749    1361.250
  H      -45.994       8.523    1357.245
  H      -47.523       9.349    1357.064
  H      -47.476       7.732    1357.725

 3  4  5  6  7  8  9  10  11  12  22  25  29  30  31  32 0
 6-311+G(2d,p)
 ****
 33  36  37 0
 6-311+G(2d,p)
 ****
 1  2  13  14  15  16  17  18  19  20  21  23  24  26 0
 3-21G
 ****
 27  28  34  35  38  39  40  41  42  43  44  45  46  47  48 0
 3-21G
 ****


