%nproc=1
%NoSave
%Mem=1900MB
#P OB98/GEN NMR

erre ene a

0 1
  C       13.294     140.080    -257.407
  O       12.011     140.107    -256.816
  H       14.038     139.910    -256.625
  H       13.505     141.036    -257.893
  H       13.356     139.267    -258.138
  P       10.773     140.371    -257.804
  C       10.711     142.930    -257.375
  O       10.928     141.888    -258.315
  C       10.789     144.289    -258.062
  O       12.146     144.579    -258.474
  C        9.921     144.418    -259.308
  O        8.580     144.728    -258.968
  C       10.618     145.555    -260.042
  O       10.236     146.840    -259.511
  C       12.098     145.261    -259.752
  N       14.130     145.352    -264.372
  C       13.609     146.374    -263.609
  N       13.577     147.597    -264.188
  N       13.151     146.218    -262.398
  C       13.216     144.936    -261.963
  C       13.726     143.836    -262.620
  C       14.259     144.033    -263.951
  O       14.797     143.181    -264.654
  N       13.637     142.710    -261.844
  C       13.037     143.119    -260.739
  N       12.748     144.457    -260.773
  O        9.514     140.448    -256.816
  O       10.575     139.349    -258.870
  H       10.651     147.541    -260.043
  H        8.722     140.123    -257.285
  H       14.484     145.538    -265.295
  H       12.794     142.485    -259.896
  H       12.686     146.182    -259.653
  H       10.363     145.567    -261.104
  H       13.597     147.710    -265.194
  H        9.975     143.506    -259.915
  H       13.175     148.348    -263.643
  H       10.509     145.049    -257.320
  H       11.481     142.875    -256.599
  H        9.728     142.799    -256.912
  P        7.416     143.854    -259.646
  C        6.897     145.722    -261.383
  O        7.286     144.372    -261.160
  O        6.084     144.408    -258.954
  O        7.568     142.377    -259.480
  H        5.352     143.774    -259.084
  H        6.856     145.912    -262.435
  H        7.610     146.378    -260.929
  H        5.932     145.891    -260.952

 6  7  8  9  10  11  12  13  14  15  26  29  33  34 0
 6-311+G(2d,p)
 ****
 36  38  39  40  41 0
 6-311+G(2d,p)
 ****
 1  2  3  4  5  16  17  18  19  20  21  22  23  24  25 0
 3-21G
 ****
 27  28  30  31  32  35  37  42  43  44  45  46  47 0
 3-21G
 ****
 48  49 0
 3-21G
 ****


