%nproc=1
%NoSave
%Mem=1900MB
#P OB98/GEN NMR

erre ene a

0 1
  C      332.922      -6.487    -142.527
  O      333.072      -5.957    -143.829
  H      332.182      -5.890    -141.986
  H      333.875      -6.439    -141.990
  H      332.573      -7.523    -142.573
  P      334.029      -6.758    -144.834
  C      336.229      -5.635    -144.000
  O      335.472      -6.827    -144.125
  C      337.721      -5.967    -143.959
  O      338.462      -4.744    -143.699
  C      338.090      -6.968    -142.853
  O      339.127      -7.828    -143.325
  C      338.625      -6.078    -141.741
  O      339.496      -6.746    -140.839
  C      339.312      -4.976    -142.557
  N      339.502      -3.746    -141.793
  C      340.420      -3.775    -140.752
  O      341.139      -4.735    -140.471
  N      340.501      -2.629    -140.001
  C      339.758      -1.497    -140.179
  O      339.858      -0.507    -139.458
  C      338.796      -1.534    -141.287
  C      338.712      -2.638    -142.033
  O      334.266      -5.715    -146.031
  O      333.516      -8.072    -145.314
  H      333.585      -5.833    -146.724
  H      339.634      -6.161    -140.066
  H      341.165      -2.628    -139.240
  H      338.183      -0.655    -141.448
  H      338.007      -2.699    -142.851
  H      340.279      -5.332    -142.934
  H      337.793      -5.661    -141.161
  H      337.237      -7.565    -142.519
  H      338.035      -6.336    -144.945
  H      335.944      -5.126    -143.072
  H      336.012      -4.976    -144.851
  P      338.685      -9.145    -144.135
  C      338.356     -10.622    -142.001
  O      337.765      -9.991    -143.128
  O      340.059      -9.957    -144.197
  O      338.068      -8.831    -145.463
  H      340.599      -9.869    -143.392
  H      337.601     -11.138    -141.444
  H      338.816      -9.883    -141.379
  H      339.096     -11.321    -142.331

 6  7  8  9  10  11  12  13  14  15  16  27  31  32  33  34  35 0
 6-311+G(2d,p)
 ****
 36  37 0
 6-311+G(2d,p)
 ****
 1  2  3  4  5  17  18  19  20  21  22  23  24  25 0
 3-21G
 ****
 26  28  29  30  38  39  40  41  42  43  44  45 0
 3-21G
 ****


