%nproc=1
%NoSave
%Mem=1900MB
#P OB98/GEN NMR

erre ene a

0 1
  C     -941.344     520.987     168.898
  O     -941.815     519.756     169.417
  P     -940.871     518.464     169.254
  C     -940.946     516.262     167.887
  O     -941.456     517.574     168.049
  C     -942.061     515.300     167.450
  O     -942.992     515.113     168.543
  C     -942.862     515.805     166.243
  O     -943.277     514.684     165.439
  C     -944.116     516.396     166.866
  O     -945.194     516.434     165.944
  C     -944.316     515.450     168.053
  N     -948.816     517.470     169.176
  C     -948.440     516.735     168.080
  N     -949.362     516.596     167.094
  N     -947.254     516.176     167.939
  C     -946.429     516.409     168.986
  C     -946.701     517.120     170.145
  C     -947.999     517.731     170.271
  O     -948.387     518.421     171.217
  N     -945.629     517.103     170.993
  C     -944.684     516.430     170.339
  N     -945.127     516.020     169.104
  O     -941.238     517.602     170.564
  O     -939.408     518.756     169.198
  H     -945.324     515.516     165.603
  H     -940.504     517.663     171.210
  H     -949.726     517.889     169.230
  H     -943.690     516.240     170.704
  H     -944.793     514.509     167.733
  H     -943.921     517.420     167.208
  H     -950.268     517.041     167.111
  H     -942.336     516.522     165.613
  H     -949.101     516.093     166.258
  H     -941.610     514.326     167.236
  H     -940.538     515.915     168.837
  H     -940.144     516.265     167.146
  P     -943.593     514.999     163.900
  C     -945.821     515.489     162.638
  O     -945.107     515.508     163.852
  O     -943.661     513.535     163.236
  O     -942.587     515.882     163.231
  H     -943.443     513.590     162.277
  H     -946.660     514.796     162.723
  H     -945.180     515.170     161.796
  H     -946.195     516.486     162.429
  H     -942.071     521.751     169.077
  H     -941.180     520.891     167.845
  H     -940.425     521.249     169.380

 3  4  5  6  7  8  9  10  11  12  23  26  30  31 0
 6-311+G(2d,p)
 ****
 33  35  36  37  38 0
 6-311+G(2d,p)
 ****
 1  2  13  14  15  16  17  18  19  20  21  22  24  25 0
 3-21G
 ****
 27  28  29  32  34  39  40  41  42  43  44  45  46  47  48  49 0
 3-21G
 ****


