%nproc=1
%NoSave
%Mem=1900MB
#P OB98/GEN NMR

erre ene a

0 1
  C      113.930     134.064     190.724
  O      114.756     135.153     191.096
  P      114.802     135.531     192.659
  C      117.182     134.478     192.872
  O      116.351     135.612     193.055
  C      118.650     134.887     193.011
  O      119.079     135.619     191.845
  C      118.938     135.785     194.207
  O      119.067     135.013     195.386
  C      120.231     136.465     193.771
  O      121.366     135.610     194.006
  C      119.993     136.666     192.267
  N      120.803     141.652     192.428
  C      121.497     140.620     193.030
  N      122.591     140.967     193.741
  N      121.152     139.363     192.940
  C      120.031     139.167     192.208
  C      119.249     140.107     191.577
  C      119.672     141.486     191.641
  O      119.149     142.424     191.046
  N      118.176     139.529     190.951
  C      118.328     138.240     191.178
  N      119.448     137.965     191.918
  O      114.286     134.196     193.368
  O      114.004     136.736     193.044
  H      122.183     136.106     193.825
  H      113.339     134.272     193.600
  H      121.127     142.599     192.518
  H      117.669     137.468     190.811
  H      120.915     136.543     191.685
  H      120.416     137.390     194.324
  H      122.904     141.916     193.874
  H      118.147     136.535     194.320
  H      123.111     140.224     194.194
  H      119.249     133.969     193.067
  H      117.016     134.068     191.872
  H      116.921     133.717     193.615
  P      118.801     135.751     196.786
  C      116.246     135.348     196.577
  O      117.414     135.196     197.359
  O      118.463     137.254     196.351
  O      119.951     135.708     197.736
  H      118.823     137.875     197.011
  H      115.564     134.525     196.800
  H      116.470     135.344     195.507
  H      115.761     136.292     196.838
  H      113.988     133.917     189.666
  H      112.918     134.274     191.000
  H      114.260     133.178     191.225

 3  4  5  6  7  8  9  10  11  12  23  26  30  31 0
 6-311+G(2d,p)
 ****
 33  35  36  37  38 0
 6-311+G(2d,p)
 ****
 1  2  13  14  15  16  17  18  19  20  21  22  24  25 0
 3-21G
 ****
 27  28  29  32  34  39  40  41  42  43  44  45  46  47  48  49 0
 3-21G
 ****


