%nproc=1
%NoSave
%Mem=1900MB
#P OB98/GEN NMR

erre ene a

0 1
  C     -420.780    -828.055    -257.266
  O     -419.972    -828.998    -256.581
  P     -420.547    -830.428    -256.165
  C     -418.308    -831.676    -256.050
  O     -419.420    -831.188    -255.311
  C     -417.562    -832.788    -255.280
  O     -416.767    -832.185    -254.233
  C     -418.503    -833.814    -254.631
  O     -417.863    -835.095    -254.762
  C     -418.528    -833.384    -253.179
  O     -418.906    -834.441    -252.298
  C     -417.105    -832.860    -253.001
  N     -416.973    -831.978    -251.854
  C     -417.058    -832.562    -250.585
  O     -417.369    -833.747    -250.468
  N     -416.813    -831.780    -249.487
  C     -416.665    -830.503    -249.627
  N     -416.339    -829.774    -248.516
  C     -416.803    -829.814    -250.929
  C     -416.926    -830.600    -251.990
  O     -421.124    -831.232    -257.280
  O     -421.672    -830.100    -255.058
  H     -422.518    -830.526    -255.322
  H     -419.698    -834.882    -252.658
  H     -416.819    -828.732    -250.982
  H     -417.012    -830.201    -252.993
  H     -416.402    -833.692    -252.882
  H     -419.253    -832.563    -253.054
  H     -419.485    -833.854    -255.092
  H     -416.890    -833.284    -255.974
  H     -416.209    -830.285    -247.657
  H     -417.623    -830.842    -256.211
  H     -415.916    -828.850    -248.588
  H     -418.636    -832.033    -257.024
  P     -418.784    -836.368    -255.102
  C     -416.877    -837.440    -256.531
  O     -417.808    -837.599    -255.462
  O     -419.350    -835.970    -256.562
  O     -419.924    -836.647    -254.185
  H     -420.198    -836.441    -256.709
  H     -416.360    -838.394    -256.662
  H     -416.158    -836.669    -256.278
  H     -417.399    -837.185    -257.441
  H     -420.212    -827.167    -257.451
  H     -421.633    -827.814    -256.667
  H     -421.104    -828.472    -258.197

 3  4  5  6  7  8  9  10  11  12  13  24  27  28  29  30  32 0
 6-311+G(2d,p)
 ****
 34  35 0
 6-311+G(2d,p)
 ****
 1  2  14  15  16  17  18  19  20  21  22  23  25  26 0
 3-21G
 ****
 31  33  36  37  38  39  40  41  42  43  44  45  46 0
 3-21G
 ****


