%nproc=1
%NoSave
%Mem=1900MB
#P OB98/GEN NMR

erre ene a

0 1
  C     -720.709     574.905     512.161
  O     -721.219     576.034     512.847
  H     -721.448     574.581     511.429
  H     -720.541     574.090     512.866
  H     -719.779     575.157     511.641
  P     -720.238     576.784     513.866
  C     -720.530     579.040     512.615
  O     -720.652     578.342     513.843
  C     -721.569     580.158     512.539
  O     -722.820     579.608     512.036
  C     -721.860     580.835     513.880
  O     -722.056     582.238     513.671
  C     -723.182     580.198     514.324
  O     -723.910     581.028     515.224
  C     -723.861     579.936     512.970
  N     -724.858     578.877     513.071
  C     -726.034     579.047     512.311
  O     -726.178     580.052     511.602
  N     -727.022     578.101     512.400
  C     -726.897     577.127     513.244
  N     -727.935     576.235     513.312
  C     -725.720     576.951     514.118
  C     -724.739     577.850     513.969
  O     -718.829     576.766     513.110
  O     -720.163     576.186     515.235
  H     -724.269     581.793     514.710
  H     -718.089     576.725     513.744
  H     -725.677     576.130     514.824
  H     -723.845     577.805     514.574
  H     -724.359     580.857     512.614
  H     -722.981     579.249     514.826
  H     -721.066     580.673     514.624
  H     -721.233     580.909     511.800
  H     -728.734     576.402     512.714
  H     -720.697     578.347     511.792
  H     -727.975     575.473     513.961
  H     -719.518     579.458     512.536
  P     -722.220     583.142     514.988
  C     -720.401     584.900     514.358
  O     -721.783     584.640     514.611
  O     -721.042     582.628     515.942
  O     -723.561     583.013     515.636
  H     -721.416     582.122     516.686
  H     -720.270     585.935     514.122
  H     -720.070     584.302     513.535
  H     -719.827     584.657     515.228

 6  7  8  9  10  11  12  13  14  15  16  26  30  31  32  33  35 0
 6-311+G(2d,p)
 ****
 37  38 0
 6-311+G(2d,p)
 ****
 1  2  3  4  5  17  18  19  20  21  22  23  24  25 0
 3-21G
 ****
 27  28  29  34  36  39  40  41  42  43  44  45  46 0
 3-21G
 ****


