%nproc=1
%NoSave
%Mem=1900MB
#P OB98/GEN NMR

erre ene a

0 1
  C      776.587    -431.161     799.273
  O      776.529    -430.319     798.142
  H      777.582    -431.612     799.333
  H      775.849    -431.962     799.182
  H      776.406    -430.593     800.191
  P      775.240    -429.377     797.996
  C      773.613    -431.322     797.439
  O      773.965    -430.291     798.344
  C      772.159    -431.749     797.669
  O      772.076    -432.446     798.944
  C      771.167    -430.571     797.733
  O      769.942    -430.990     797.133
  C      770.958    -430.373     799.227
  O      769.737    -429.732     799.558
  C      771.026    -431.829     799.717
  N      771.306    -431.927     801.148
  C      770.239    -432.224     801.984
  O      769.090    -432.490     801.602
  N      770.507    -432.205     803.333
  C      771.715    -431.901     803.901
  O      771.896    -431.881     805.108
  C      772.809    -431.581     802.965
  C      772.550    -431.605     801.649
  O      775.128    -429.172     796.410
  O      775.299    -428.084     798.735
  H      775.639    -428.390     796.128
  H      769.010    -430.305     799.245
  H      769.747    -432.421     803.947
  H      773.769    -431.322     803.381
  H      773.331    -431.361     800.932
  H      770.089    -432.354     799.486
  H      771.782    -429.789     799.647
  H      771.536    -429.656     797.245
  H      771.869    -432.460     796.890
  H      774.268    -432.196     797.604
  H      773.747    -430.972     796.411
  P      769.421    -430.159     795.863
  C      767.947    -428.481     797.244
  O      769.083    -428.687     796.407
  O      767.982    -430.831     795.614
  O      770.357    -430.231     794.696
  H      767.547    -431.090     796.442
  H      767.881    -427.446     797.507
  H      768.047    -429.069     798.132
  H      767.061    -428.774     796.721

 6  7  8  9  10  11  12  13  14  15  16  27  31  32  33  34  35 0
 6-311+G(2d,p)
 ****
 36  37 0
 6-311+G(2d,p)
 ****
 1  2  3  4  5  17  18  19  20  21  22  23  24  25 0
 3-21G
 ****
 26  28  29  30  38  39  40  41  42  43  44  45 0
 3-21G
 ****


