%nproc=1
%NoSave
%Mem=1900MB
#P OB98/GEN NMR

erre ene a

0 1
  C       86.053    -138.008      37.185
  O       87.061    -137.055      36.913
  H       86.403    -138.990      36.858
  H       85.136    -137.759      36.642
  H       85.853    -138.044      38.260
  P       86.728    -135.531      37.289
  C       85.804    -133.523      35.964
  O       86.159    -134.901      35.924
  C       85.978    -132.888      34.582
  O       87.384    -132.936      34.226
  C       85.192    -133.603      33.481
  O       84.676    -132.635      32.568
  C       86.245    -134.449      32.784
  O       85.902    -134.740      31.432
  C       87.495    -133.583      32.946
  N       90.133    -136.881      30.082
  C       89.029    -136.147      29.829
  N       88.398    -135.276      30.648
  C       89.051    -135.166      31.819
  C       90.185    -135.852      32.221
  C       90.733    -136.753      31.290
  N       91.843    -137.525      31.549
  N       90.532    -135.500      33.511
  C       89.627    -134.607      33.876
  N       88.705    -134.386      32.892
  O       87.836    -134.765      37.934
  O       85.405    -135.696      38.172
  H       86.523    -135.419      31.096
  H       84.784    -136.333      37.770
  H       88.588    -136.278      28.844
  H       89.594    -134.107      34.840
  H       87.579    -132.814      32.170
  H       86.362    -135.401      33.315
  H       84.378    -134.211      33.874
  H       85.703    -131.830      34.647
  H       86.429    -132.993      36.691
  H       92.177    -138.136      30.820
  H       92.314    -137.431      32.438
  H       84.760    -133.452      36.285
  P       83.093    -132.378      32.540
  C       80.935    -133.745      32.170
  O       82.352    -133.784      32.317
  O       82.629    -131.261      31.669
  O       82.769    -132.065      34.081
  H       82.081    -131.373      34.126
  H       80.564    -134.738      32.029
  H       80.681    -133.145      31.321
  H       80.497    -133.322      33.050

 6  7  8  9  10  11  12  13  14  15  25  28  32  33  34  35 0
 6-311+G(2d,p)
 ****
 36  39  40 0
 6-311+G(2d,p)
 ****
 1  2  3  4  5  16  17  18  19  20  21  22  23  24 0
 3-21G
 ****
 26  27  29  30  31  37  38  41  42  43  44  45  46  47 0
 3-21G
 ****
 48 0
 3-21G
 ****


