%nproc=1
%NoSave
%Mem=1900MB
#P OB98/GEN NMR

erre ene a

0 1
  C       -0.971     360.656     -43.960
  O       -1.699     360.508     -42.756
  H        0.095     360.682     -43.725
  H       -1.247     361.592     -44.454
  H       -1.169     359.811     -44.628
  P       -3.298     360.428     -42.886
  C       -5.170     362.080     -43.615
  O       -3.790     361.892     -43.315
  C       -5.364     363.419     -44.320
  O       -5.030     364.501     -43.420
  C       -4.464     363.611     -45.535
  O       -4.942     362.923     -46.680
  C       -4.492     365.127     -45.684
  O       -5.653     365.560     -46.401
  C       -4.554     365.605     -44.229
  N       -1.480     369.655     -43.776
  C       -2.751     369.530     -44.225
  N       -3.506     368.414     -44.297
  C       -2.832     367.354     -43.824
  C       -1.536     367.328     -43.332
  C       -0.845     368.552     -43.312
  N        0.453     368.677     -42.879
  N       -1.177     366.043     -42.972
  C       -2.238     365.305     -43.236
  N       -3.263     366.054     -43.747
  O       -3.777     360.292     -41.365
  O       -3.808     359.308     -43.732
  H       -5.570     365.194     -47.302
  H       -3.979     359.356     -41.169
  H       -3.217     370.445     -44.577
  H       -2.312     364.236     -43.081
  H       -5.259     366.431     -44.096
  H       -3.613     365.479     -46.224
  H       -3.437     363.298     -45.298
  H       -6.422     363.521     -44.600
  H       -5.747     362.078     -42.683
  H       -5.512     361.254     -44.247
  H        0.906     369.571     -42.960
  H        0.974     367.842     -42.641
  P       -3.900     362.021     -47.495
  C       -1.474     362.410     -48.372
  O       -2.707     362.983     -47.971
  O       -4.675     361.675     -48.852
  O       -3.448     360.792     -46.782
  H       -4.439     360.772     -49.145
  H       -0.795     363.187     -48.656
  H       -1.638     361.758     -49.204
  H       -1.058     361.853     -47.558

 6  7  8  9  10  11  12  13  14  15  25  28  32  33  34  35 0
 6-311+G(2d,p)
 ****
 36  37  40 0
 6-311+G(2d,p)
 ****
 1  2  3  4  5  16  17  18  19  20  21  22  23  24 0
 3-21G
 ****
 26  27  29  30  31  38  39 41  42  43  44  45  46  47  48 0
 3-21G
 ****


