%nproc=1
%NoSave
%Mem=1900MB
#P OB98/GEN NMR

erre ene a

0 1
  C      249.934    -895.410     318.073
  O      249.913    -895.360     316.633
  P      251.158    -894.880     315.745
  C      251.736    -897.240     314.818
  O      251.328    -895.890     314.511
  C      251.778    -898.090     313.559
  O      250.429    -898.380     313.090
  C      252.454    -897.450     312.344
  O      253.862    -897.390     312.485
  C      251.963    -898.360     311.222
  O      252.780    -899.520     311.093
  C      250.538    -898.760     311.685
  N      249.493    -898.130     310.921
  C      249.046    -898.840     309.775
  O      249.610    -899.880     309.454
  N      248.001    -898.340     309.055
  C      247.512    -897.170     309.354
  N      246.463    -896.710     308.617
  C      248.042    -896.320     310.454
  C      249.005    -896.860     311.198
  O      252.412    -894.660     316.518
  O      250.666    -893.510     315.045
  H      251.455    -892.960     314.843
  H      252.475    -900.000     310.315
  H      247.614    -895.350     310.656
  H      249.434    -896.330     312.036
  H      250.427    -899.850     311.667
  H      251.976    -897.840     310.238
  H      252.051    -896.440     312.201
  H      252.268    -899.040     313.797
  H      246.122    -897.320     307.878
  H      251.014    -897.670     315.530
  H      245.990    -895.830     308.789
  H      252.713    -897.200     315.314
  P      254.563    -896.010     312.078
  C      256.579    -896.000     313.749
  O      256.147    -896.170     312.416
  O      254.060    -894.970     313.159
  O      254.274    -895.540     310.689
  H      253.878    -894.130     312.758
  H      257.490    -896.570     313.894
  H      255.823    -896.340     314.459
  H      256.792    -894.940     313.932
  H      248.989    -895.762     318.431
  H      250.121    -894.431     318.461
  H      250.708    -896.075     318.396

 3  4  5  6  7  8  9  10  11  12  13  24  27  28  29  30  32 0
 6-311+G(2d,p)
 ****
 34  35 0
 6-311+G(2d,p)
 ****
 1  2  14  15  16  17  18  19  20  21  22  23  25  26 0
 3-21G
 ****
 31  33  36  37  38  39  40  41  42  43  44  45  46 0
 3-21G
 ****


