%nproc=1
%NoSave
%Mem=1900MB
#P OB98/GEN NMR

erre ene a

0 1
  C        8.817      38.786     299.798
  O        7.685      39.203     299.027
  P        6.234      38.746     299.539
  C        5.945      36.677     297.956
  O        6.164      37.166     299.271
  C        5.966      35.150     297.955
  O        7.261      34.657     298.376
  C        4.963      34.514     298.905
  O        3.642      34.600     298.396
  C        5.519      33.101     299.009
  O        5.122      32.322     297.869
  C        7.042      33.353     298.967
  N        7.675      33.248     300.275
  C        7.855      31.955     300.758
  O        7.489      30.953     300.149
  N        8.457      31.855     301.984
  C        8.859      32.898     302.766
  O        9.401      32.746     303.853
  C        8.596      34.240     302.224
  C        8.025      34.354     301.022
  O        5.296      39.382     298.415
  O        5.945      39.184     300.934
  H        5.700      39.375     297.531
  H        4.167      32.140     297.978
  H        8.608      30.927     302.345
  H        8.878      35.091     302.832
  H        7.821      35.336     300.608
  H        7.527      32.632     298.297
  H        5.169      32.577     299.903
  H        5.014      35.005     299.884
  H        5.784      34.807     296.928
  H        6.728      37.047     297.286
  H        4.988      37.061     297.590
  P        2.749      35.840     298.901
  C        0.440      34.709     299.375
  O        1.646      35.231     299.889
  O        1.930      36.191     297.570
  O        3.553      36.972     299.447
  H        1.584      35.404     297.117
  H       -0.004      34.049     300.126
  H        0.610      34.138     298.460
  H       -0.255      35.527     299.172
  H        9.713      39.158     299.346
  H        8.852      37.717     299.831
  H        8.733      39.171     300.793

 3  4  5  6  7  8  9  10  11  12  13  24  28  29  30  31  32 0
 6-311+G(2d,p)
 ****
 33  34 0
 6-311+G(2d,p)
 ****
 1  2  14  15  16  17  18  19  20  21  22  23  25  26  27 0
 3-21G
 ****
 35  36  37  38  39  40  41  42  43  44  45 0
 3-21G
 ****


