%nproc=1
%NoSave
%Mem=1900MB
#P OB98/GEN NMR

erre ene a

0 1
  C      808.554    -552.970     -45.032
  O      807.218    -552.971     -45.491
  H      809.215    -552.786     -45.881
  H      808.795    -553.949     -44.603
  H      808.719    -552.189     -44.281
  P      806.041    -552.757     -44.430
  C      805.341    -550.769     -45.921
  O      804.900    -551.862     -45.122
  C      804.234    -550.276     -46.857
  O      803.074    -549.902     -46.088
  C      804.654    -549.036     -47.653
  O      805.338    -549.315     -48.864
  C      803.306    -548.370     -47.926
  O      802.713    -548.867     -49.134
  C      802.466    -548.766     -46.708
  N      799.464    -545.148     -44.695
  C      799.244    -545.928     -45.819
  N      798.106    -545.686     -46.495
  N      800.082    -546.844     -46.223
  C      801.222    -546.911     -45.497
  C      801.557    -546.170     -44.382
  C      800.593    -545.212     -43.891
  O      800.730    -544.504     -42.896
  N      802.818    -546.479     -43.933
  C      803.277    -547.332     -44.828
  N      802.316    -547.682     -45.751
  O      806.676    -551.742     -43.366
  O      805.552    -554.003     -43.749
  H      803.363    -548.747     -49.860
  H      806.296    -551.914     -42.482
  H      798.770    -544.478     -44.404
  H      804.269    -547.760     -44.831
  H      801.449    -549.068     -47.002
  H      803.421    -547.291     -48.055
  H      797.467    -544.934     -46.278
  H      805.250    -548.359     -47.031
  H      798.007    -546.101     -47.423
  H      803.932    -551.094     -47.526
  H      806.191    -551.137     -46.504
  H      805.696    -549.953     -45.285
  P      806.560    -548.414     -49.345
  C      807.042    -550.259     -51.155
  O      807.000    -548.892     -50.803
  O      807.764    -548.914     -48.412
  O      806.349    -546.936     -49.242
  H      807.898    -548.304     -47.662
  H      807.361    -550.356     -52.172
  H      806.067    -550.686     -51.045
  H      807.730    -550.771     -50.515

 6  7  8  9  10  11  12  13  14  15  26  29  33  34 0
 6-311+G(2d,p)
 ****
 36  38  39  40  41 0
 6-311+G(2d,p)
 ****
 1  2  3  4  5  16  17  18  19  20  21  22  23  24  25 0
 3-21G
 ****
 27  28  30  31  32  35  37  42  43  44  45  46  47 0
 3-21G
 ****
 48  49 0
 3-21G
 ****


