%nproc=1
%NoSave
%Mem=1900MB
#P OB98/GEN NMR

erre ene a

0 1
  C      -29.943     419.811    -696.362
  O      -28.967     420.729    -696.855
  P      -27.392     420.580    -696.647
  C      -27.614     422.283    -694.661
  O      -26.871     421.822    -695.795
  C      -27.119     423.647    -694.129
  O      -25.734     423.526    -693.735
  C      -27.182     424.700    -695.229
  O      -28.392     425.390    -695.497
  C      -26.002     425.634    -694.930
  O      -26.375     426.769    -694.145
  C      -25.036     424.731    -694.147
  N      -19.989     423.900    -694.098
  C      -20.813     424.308    -693.060
  N      -20.227     424.584    -691.884
  N      -22.105     424.461    -693.188
  C      -22.561     424.238    -694.452
  C      -21.829     423.852    -695.557
  C      -20.409     423.638    -695.398
  O      -19.626     423.263    -696.265
  N      -22.627     423.750    -696.680
  C      -23.825     424.093    -696.258
  N      -23.838     424.396    -694.899
  O      -26.614     420.223    -697.873
  O      -27.269     419.333    -695.618
  H      -25.584     427.073    -693.664
  H      -26.436     418.862    -695.841
  H      -18.998     423.781    -693.934
  H      -24.711     424.142    -696.871
  H      -24.691     425.221    -693.225
  H      -25.573     426.027    -695.857
  H      -19.222     424.608    -691.749
  H      -26.919     424.207    -696.170
  H      -20.798     425.087    -691.191
  H      -27.667     423.925    -693.229
  H      -27.524     421.507    -693.891
  H      -28.682     422.349    -694.918
  P      -29.463     424.999    -696.626
  C      -28.270     426.673    -698.157
  O      -29.514     426.196    -697.692
  O      -30.875     425.133    -695.880
  O      -29.294     423.634    -697.214
  H      -31.565     424.674    -696.389
  H      -28.415     427.661    -698.618
  H      -27.867     425.982    -698.909
  H      -27.553     426.773    -697.335
  H      -30.920     420.146    -696.640
  H      -29.875     419.757    -695.296
  H      -29.765     418.842    -696.781

 3  4  5  6  7  8  9  10  11  12  23  26  30  31 0
 6-311+G(2d,p)
 ****
 33  35  36  37  38 0
 6-311+G(2d,p)
 ****
 1  2  13  14  15  16  17  18  19  20  21  22  24  25 0
 3-21G
 ****
 27  28  29  32  34  39  40  41  42  43  44  45  46  47  48  49 0
 3-21G
 ****


