%nproc=1
%NoSave
%Mem=1900MB
#P OB98/GEN NMR

erre ene a

0 1
  C      435.909     110.737    -210.759
  O      435.079     109.602    -210.863
  H      436.061     111.151    -211.763
  H      436.883     110.468    -210.348
  H      435.438     111.502    -210.134
  P      434.846     108.684    -209.563
  C      432.674     107.600    -210.412
  O      434.054     107.387    -210.112
  C      432.021     106.326    -210.958
  O      432.384     106.154    -212.346
  C      432.425     105.046    -210.211
  O      431.254     104.269    -209.929
  C      433.320     104.318    -211.200
  O      433.358     102.913    -210.965
  C      432.701     104.748    -212.535
  N      433.590     104.550    -213.671
  C      433.332     103.417    -214.464
  O      432.412     102.654    -214.175
  N      434.134     103.182    -215.550
  C      435.140     103.962    -215.800
  N      435.910     103.668    -216.890
  C      435.478     105.134    -214.962
  C      434.667     105.371    -213.927
  O      434.191     109.380    -208.416
  O      436.294     108.097    -209.218
  H      433.938     102.502    -211.651
  H      436.309     107.792    -208.280
  H      436.337     105.749    -215.199
  H      434.829     106.218    -213.263
  H      431.766     104.216    -212.722
  H      434.343     104.702    -211.125
  H      432.938     105.243    -209.275
  H      430.936     106.464    -210.944
  H      435.641     102.849    -217.429
  H      432.598     108.415    -211.142
  H      436.721     104.201    -217.167
  H      432.167     107.894    -209.488
  P      430.994     103.927    -208.378
  C      428.516     104.674    -208.620
  O      429.416     103.652    -208.196
  O      431.225     105.337    -207.651
  O      431.884     102.866    -207.832
  H      432.110     105.369    -207.249
  H      427.509     104.359    -208.441
  H      428.652     104.858    -209.665
  H      428.712     105.572    -208.071

 6  7  8  9  10  11  12  13  14  15  16  26  30  31  32  33  35 0
 6-311+G(2d,p)
 ****
 37  38 0
 6-311+G(2d,p)
 ****
 1  2  3  4  5  17  18  19  20  21  22  23  24  25 0
 3-21G
 ****
 27  28  29  34  36  39  40  41  42  43  44  45  46 0
 3-21G
 ****


