%nproc=1
%NoSave
%Mem=1900MB
#P OB98/GEN NMR

erre ene a

0 1
  C      123.190    -145.495     397.310
  O      123.867    -145.040     396.157
  H      123.828    -146.213     397.834
  H      122.254    -145.990     397.035
  H      122.981    -144.653     397.979
  P      123.045    -144.052     395.191
  C      122.158    -146.144     393.911
  O      121.843    -144.968     394.645
  C      121.870    -145.918     392.430
  O      122.307    -147.046     391.645
  C      120.391    -145.739     392.101
  O      119.913    -144.441     392.403
  C      120.409    -146.006     390.605
  O      120.937    -144.854     389.922
  C      121.392    -147.198     390.526
  N      120.718    -148.496     390.578
  C      120.403    -149.089     389.350
  O      120.670    -148.523     388.292
  N      119.750    -150.301     389.350
  C      119.450    -150.876     390.469
  N      118.792    -152.070     390.411
  C      119.782    -150.297     391.781
  C      120.403    -149.121     391.768
  O      123.986    -143.907     393.905
  O      122.619    -142.752     395.790
  H      120.331    -144.113     390.109
  H      123.511    -143.414     393.195
  H      119.502    -150.805     392.695
  H      120.678    -148.630     392.696
  H      121.988    -147.150     389.608
  H      119.418    -146.199     390.194
  H      119.776    -146.512     392.584
  H      122.457    -145.045     392.101
  H      118.525    -152.411     389.498
  H      121.544    -146.967     394.292
  H      118.364    -152.495     391.219
  H      123.216    -146.398     394.039
  P      118.456    -144.324     393.080
  C      117.418    -143.861     390.741
  O      117.376    -144.642     391.931
  O      118.294    -142.748     393.315
  O      118.286    -145.101     394.352
  H      117.846    -142.563     394.161
  H      116.646    -144.185     390.075
  H      118.371    -143.981     390.269
  H      117.269    -142.830     390.986

 6  7  8  9  10  11  12  13  14  15  16  26  30  31  32  33  35 0
 6-311+G(2d,p)
 ****
 37  38 0
 6-311+G(2d,p)
 ****
 1  2  3  4  5  17  18  19  20  21  22  23  24  25 0
 3-21G
 ****
 27  28  29  34  36  39  40  41  42  43  44  45  46 0
 3-21G
 ****


