%nproc=1
%NoSave
%Mem=1900MB
#P OB98/GEN NMR

erre ene a

0 1
  C     -120.058     356.401    -196.505
  O     -120.092     355.521    -197.611
  P     -119.698     353.983    -197.346
  C     -117.617     352.741    -196.414
  O     -118.200     353.985    -196.777
  C     -116.437     352.937    -195.459
  O     -116.922     353.474    -194.208
  C     -115.658     351.657    -195.153
  O     -114.271     351.991    -195.052
  C     -116.167     351.249    -193.782
  O     -115.225     350.444    -193.083
  C     -116.438     352.629    -193.148
  N     -117.390     352.549    -192.043
  C     -116.932     352.947    -190.783
  O     -115.756     353.262    -190.629
  N     -117.805     352.918    -189.724
  C     -119.000     352.438    -189.889
  N     -119.830     352.441    -188.806
  C     -119.484     351.892    -191.171
  C     -118.638     352.000    -192.203
  O     -119.534     353.398    -198.826
  O     -120.700     353.216    -196.543
  H     -115.200     349.560    -193.511
  H     -119.790     352.457    -198.858
  H     -120.472     351.466    -191.248
  H     -118.914     351.647    -193.189
  H     -115.504     353.063    -192.772
  H     -117.103     350.683    -193.884
  H     -115.797     350.882    -195.918
  H     -115.768     353.690    -195.898
  H     -119.470     352.800    -187.938
  H     -117.250     352.239    -197.309
  H     -120.773     352.082    -188.844
  H     -118.383     352.104    -195.956
  P     -113.201     350.818    -195.253
  C     -112.397     348.860    -193.795
  O     -113.372     349.873    -193.967
  O     -111.832     351.577    -194.927
  O     -113.135     350.141    -196.587
  H     -111.075     350.972    -195.069
  H     -112.553     348.390    -192.817
  H     -111.396     349.284    -193.830
  H     -112.511     348.100    -194.575
  H     -120.340     357.383    -196.822
  H     -119.068     356.427    -196.101
  H     -120.740     356.058    -195.755

 3  4  5  6  7  8  9  10  11  12  13  21  23  27  28  29  30  32 0
 6-311+G(2d,p)
 ****
 34  35 0
 6-311+G(2d,p)
 ****
 1  2  14  15  16  17  18  19  20  22  24  25  26 0
 3-21G
 ****
 31  33  36  37  38  39  40  41  42  43  44  45  46 0
 3-21G
 ****


