%nproc=1
%NoSave
%Mem=1900MB
#P OB98/GEN NMR

erre ene a

0 1
  C     -262.966     262.255     -66.279
  O     -261.793     262.256     -65.498
  P     -261.409     263.419     -64.475
  C     -259.517     264.544     -65.893
  O     -260.811     264.654     -65.307
  C     -258.819     265.912     -65.958
  O     -259.530     266.748     -66.912
  C     -258.883     266.636     -64.597
  O     -257.677     267.298     -64.238
  C     -260.139     267.495     -64.728
  O     -260.176     268.583     -63.812
  C     -260.104     267.860     -66.209
  N     -262.686     269.009     -70.446
  C     -261.396     268.521     -70.315
  N     -260.654     268.504     -71.440
  N     -260.888     268.118     -69.180
  C     -261.712     268.295     -68.122
  C     -263.009     268.769     -68.126
  C     -263.572     269.182     -69.389
  O     -264.661     269.734     -69.538
  N     -263.514     268.880     -66.853
  C     -262.518     268.509     -66.078
  N     -261.400     268.169     -66.796
  O     -260.701     263.011     -63.227
  O     -262.864     263.980     -64.049
  H     -259.400     269.142     -63.990
  H     -262.800     264.264     -63.117
  H     -262.996     269.381     -71.343
  H     -262.547     268.480     -64.992
  H     -259.478     268.741     -66.390
  H     -260.990     266.862     -64.497
  H     -260.965     268.942     -72.300
  H     -259.024     265.921     -63.784
  H     -259.653     268.385     -71.328
  H     -257.794     265.776     -66.318
  H     -259.663     264.153     -66.909
  H     -258.906     263.821     -65.343
  P     -256.795     267.137     -62.913
  C     -257.783     269.125     -61.617
  O     -257.621     267.714     -61.677
  O     -255.610     268.198     -63.074
  O     -256.236     265.769     -62.701
  H     -254.774     267.803     -62.738
  H     -258.118     269.405     -60.621
  H     -258.547     269.426     -62.345
  H     -256.844     269.632     -61.839
  H     -262.993     261.371     -66.881
  H     -262.974     263.118     -66.912
  H     -263.822     262.276     -65.637

 3  4  5  6  7  8  9  10  11  12  23  26  30  31 0
 6-311+G(2d,p)
 ****
 33  35  36  37  38 0
 6-311+G(2d,p)
 ****
 1  2  13  14  15  16  17  18  19  20  21  22  24  25 0
 3-21G
 ****
 27  28  29  32  34  39  40  41  42  43  44  45  46  47  48  49 0
 3-21G
 ****


