%nproc=1
%NoSave
%Mem=1900MB
#P OB98/GEN NMR

erre ene a

0 1
  C     -291.079    -270.292    -353.993
  O     -290.610    -269.138    -354.694
  P     -290.421    -267.782    -353.866
  C     -287.899    -267.454    -354.399
  O     -288.888    -267.680    -353.410
  C     -286.503    -267.415    -353.763
  O     -286.345    -268.457    -352.776
  C     -285.375    -267.604    -354.765
  O     -285.045    -266.392    -355.418
  C     -284.236    -268.025    -353.840
  O     -283.665    -266.855    -353.210
  C     -284.956    -268.893    -352.797
  N     -282.022    -273.009    -352.756
  C     -281.748    -271.715    -352.347
  N     -280.511    -271.492    -351.842
  N     -282.610    -270.732    -352.424
  C     -283.808    -271.116    -352.931
  C     -284.192    -272.353    -353.375
  C     -283.227    -273.432    -353.298
  O     -283.400    -274.590    -353.659
  N     -285.480    -272.348    -353.830
  C     -285.891    -271.105    -353.647
  N     -284.901    -270.308    -353.113
  O     -291.181    -268.094    -352.490
  O     -290.985    -266.563    -354.536
  H     -282.892    -267.159    -352.708
  H     -291.513    -267.268    -352.096
  H     -281.315    -273.724    -352.679
  H     -286.881    -270.740    -353.877
  H     -284.550    -268.763    -351.792
  H     -283.422    -268.520    -354.370
  H     -279.821    -272.209    -351.709
  H     -285.597    -268.417    -355.470
  H     -280.308    -270.557    -351.503
  H     -286.388    -266.445    -353.268
  H     -288.092    -266.512    -354.922
  H     -287.970    -268.238    -355.165
  P     -285.384    -266.264    -356.986
  C     -287.439    -264.728    -356.590
  O     -286.955    -265.965    -357.068
  O     -285.249    -267.778    -357.496
  O     -284.500    -265.351    -357.749
  H     -284.948    -267.793    -358.428
  H     -288.490    -264.631    -356.877
  H     -286.876    -263.903    -357.032
  H     -287.363    -264.691    -355.499
  H     -291.155    -271.115    -354.672
  H     -292.041    -270.087    -353.572
  H     -290.392    -270.538    -353.210

 3  4  5  6  7  8  9  10  11  12  23  26  30  31 0
 6-311+G(2d,p)
 ****
 33  35  36  37  38 0
 6-311+G(2d,p)
 ****
 1  2  13  14  15  16  17  18  19  20  21  22  24  25 0
 3-21G
 ****
 27  28  29  32  34  39  40  41  42  43  44  45  46  47  48  49 0
 3-21G
 ****


