%nproc=1
%NoSave
%Mem=1900MB
#P OB98/GEN NMR

erre ene a

0 1
  C      289.696      77.564      67.764
  O      289.842      76.651      66.689
  P      291.105      76.852      65.720
  C      290.044      77.510      63.438
  O      290.660      77.952      64.644
  C      288.536      77.379      63.628
  O      287.983      78.631      64.069
  C      287.780      77.020      62.361
  O      287.919      75.643      62.071
  C      286.360      77.433      62.729
  O      285.677      76.375      63.421
  C      286.595      78.643      63.664
  N      286.230      79.907      63.045
  C      285.048      80.494      63.512
  O      284.378      79.931      64.380
  N      284.638      81.681      62.955
  C      285.345      82.226      62.014
  N      284.894      83.405      61.504
  C      286.584      81.629      61.481
  C      286.963      80.477      62.032
  O      291.135      75.495      64.876
  O      292.398      77.114      66.422
  H      286.362      75.929      63.962
  H      292.039      75.300      64.563
  H      287.136      82.126      60.696
  H      287.860      79.969      61.700
  H      286.004      78.533      64.584
  H      285.764      77.673      61.844
  H      288.135      77.624      61.517
  H      288.352      76.630      64.412
  H      284.036      83.786      61.885
  H      290.451      76.534      63.161
  H      285.383      83.919      60.785
  H      290.274      78.224      62.642
  P      287.309      75.107      60.691
  C      285.169      73.715      60.935
  O      285.730      75.013      60.949
  O      287.744      73.564      60.705
  O      287.739      75.798      59.441
  H      287.511      73.144      59.858
  H      284.132      73.778      61.274
  H      285.722      73.050      61.604
  H      285.182      73.314      59.919
  H      288.819      77.317      68.326
  H      289.604      78.558      67.378
  H      290.555      77.507      68.400

 3  4  5  6  7  8  9  10  11  12  13  21  23  27  28  29  30  32 0
 6-311+G(2d,p)
 ****
 34  35 0
 6-311+G(2d,p)
 ****
 1  2  14  15  16  17  18  19  20  22  24  25  26 0
 3-21G
 ****
 31  33  36  37  38  39  40  41  42  43  44  45  46 0
 3-21G
 ****


