%nproc=1
%NoSave
%Mem=1900MB
#P OB98/GEN NMR

erre ene a

0 1
  C      211.477    -209.917     293.440
  O      211.481    -211.165     292.770
  P      212.602    -211.502     291.676
  C      212.042    -211.426     289.158
  O      212.179    -210.674     290.363
  C      210.697    -212.151     289.113
  O      209.633    -211.265     289.520
  C      210.311    -212.660     287.730
  O      211.028    -213.838     287.410
  C      208.809    -212.857     287.898
  O      208.513    -214.113     288.523
  C      208.429    -211.681     288.829
  N      207.810    -210.578     288.110
  C      206.532    -210.827     287.590
  O      206.011    -211.931     287.729
  N      205.898    -209.828     286.890
  C      206.502    -208.691     286.702
  N      205.835    -207.743     285.988
  C      207.862    -208.400     287.205
  C      208.453    -209.379     287.892
  O      212.868    -212.953     291.459
  O      213.880    -210.691     292.205
  H      207.536    -214.190     288.527
  H      214.290    -211.132     292.994
  H      208.327    -207.443     287.012
  H      209.451    -209.252     288.293
  H      207.730    -212.020     289.608
  H      208.280    -212.840     286.938
  H      210.494    -211.873     286.982
  H      210.739    -212.989     289.825
  H      204.916    -207.993     285.636
  H      212.852    -212.158     289.117
  H      206.225    -206.844     285.751
  H      212.149    -210.749     288.298
  P      211.157    -214.303     285.880
  C      209.734    -216.308     285.131
  O      209.743    -214.924     285.441
  O      212.352    -215.146     285.570
  O      211.211    -212.920     285.070
  H      211.912    -212.980     284.395
  H      208.700    -216.668     285.180
  H      210.337    -216.872     285.845
  H      210.117    -216.457     284.120
  H      210.657    -209.883     294.127
  H      211.375    -209.128     292.724
  H      212.396    -209.797     293.975

 3  4  5  6  7  8  9  10  11  12  13  23  27  28  29  30  32 0
 6-311+G(2d,p)
 ****
 34  35 0
 6-311+G(2d,p)
 ****
 1  2  14  15  16  17  18  19  20  21  22  24  25  26 0
 3-21G
 ****
 31  33  36  37  38  39  40  41  42  43  44  45  46 0
 3-21G
 ****


