%nproc=1
%NoSave
%Mem=1900MB
#P OB98/GEN NMR

erre ene a

0 1
  C     -210.581     414.662     -51.654
  O     -211.491     415.751     -51.852
  P     -211.102     417.270     -51.515
  C     -210.481     417.825     -53.955
  O     -211.296     418.159     -52.838
  C     -211.096     418.311     -55.271
  O     -212.253     417.525     -55.614
  C     -211.550     419.767     -55.250
  O     -210.443     420.637     -55.413
  C     -212.548     419.778     -56.416
  O     -211.857     419.892     -57.673
  C     -213.199     418.388     -56.279
  N     -218.189     417.300     -56.563
  C     -217.177     417.125     -57.440
  N     -215.870     417.444     -57.296
  C     -215.647     417.987     -56.078
  C     -216.580     418.236     -55.079
  C     -217.911     417.869     -55.363
  N     -218.946     418.059     -54.474
  N     -215.992     418.822     -53.990
  C     -214.717     418.908     -54.311
  N     -214.460     418.412     -55.561
  O     -209.763     417.425     -50.867
  O     -212.266     417.782     -50.541
  H     -211.588     420.828     -57.764
  H     -211.922     418.479     -49.957
  H     -217.449     416.668     -58.388
  H     -213.932     419.310     -53.676
  H     -213.389     417.942     -57.265
  H     -213.260     420.602     -56.353
  H     -212.075     419.981     -54.320
  H     -210.347     418.149     -56.066
  H     -210.364     416.734     -53.986
  H     -219.873     417.804     -54.762
  H     -218.758     418.522     -53.596
  H     -209.495     418.278     -53.813
  P     -210.503     422.116     -54.808
  C     -207.979     422.212     -54.336
  O     -209.069     422.785     -55.040
  O     -211.033     422.229     -53.415
  O     -211.429     422.917     -55.846
  H     -211.903     423.631     -55.383
  H     -207.987     422.567     -53.303
  H     -207.048     422.506     -54.819
  H     -208.053     421.116     -54.339
  H     -211.052     413.746     -51.945
  H     -210.307     414.610     -50.621
  H     -209.705     414.817     -52.248

 3  4  5  6  7  8  9  10  11  12  22  25  29  30  31  32 0
 6-311+G(2d,p)
 ****
 33  36  37 0
 6-311+G(2d,p)
 ****
 1  2  13  14  15  16  17  18  19  20  21  23  24  26 0
 3-21G
 ****
 27  28  34  35  38  39  40  41  42  43  44  45  46  47  48 0
 3-21G
 ****


