%nproc=1
%NoSave
%Mem=1900MB
#P OB98/GEN NMR

erre ene a

0 1
  C     -234.289     113.865      20.635
  O     -232.971     114.372      20.403
  P     -232.327     115.396      21.448
  C     -229.796     114.875      21.304
  O     -230.994     114.758      22.066
  C     -229.381     113.502      20.771
  O     -230.294     113.032      19.748
  C     -228.019     113.523      20.090
  O     -226.892     113.714      20.918
  C     -228.057     112.254      19.250
  O     -227.709     111.103      20.023
  C     -229.548     112.203      18.836
  N     -229.759     112.615      17.446
  C     -229.861     111.589      16.512
  O     -229.736     110.399      16.797
  N     -230.073     111.980      15.217
  C     -230.159     113.269      14.774
  O     -230.326     113.564      13.597
  C     -230.020     114.309      15.802
  C     -229.830     113.942      17.073
  O     -233.268     115.992      22.442
  O     -231.738     116.548      20.489
  H     -227.849     110.320      19.458
  H     -231.920     117.408      20.911
  H     -230.158     111.249      14.528
  H     -230.077     115.343      15.485
  H     -229.726     114.694      17.849
  H     -229.939     111.183      18.943
  H     -227.353     112.300      18.415
  H     -228.007     114.365      19.380
  H     -229.409     112.785      21.591
  H     -229.002     115.293      21.927
  H     -229.963     115.587      20.491
  P     -226.151     115.125      21.079
  C     -225.748     115.498      23.613
  O     -226.562     115.757      22.492
  O     -226.146     116.035      19.896
  O     -224.641     114.656      21.362
  H     -224.033     115.316      20.978
  H     -226.185     115.990      24.485
  H     -224.741     115.898      23.455
  H     -225.695     114.423      23.807
  H     -234.559     113.198      19.843
  H     -234.983     114.679      20.669
  H     -234.310     113.339      21.567

 3  4  5  6  7  8  9  10  11  12  13  23  28  29  30  31  32 0
 6-311+G(2d,p)
 ****
 33  34 0
 6-311+G(2d,p)
 ****
 1  2  14  15  16  17  18  19  20  21  22  24  25  26  27 0
 3-21G
 ****
 35  36  37  38  39  40  41  42  43  44  45 0
 3-21G
 ****


