%nproc=1
%NoSave
%Mem=1900MB
#P OB98/GEN NMR

erre ene a

0 1
  C       15.113     124.150     135.873
  O       13.760     124.046     136.281
  P       13.053     122.610     136.202
  C       11.343     123.605     134.520
  O       11.546     122.829     135.691
  C        9.885     124.060     134.418
  O        9.029     122.910     134.186
  C        9.370     124.764     135.679
  O        8.428     125.779     135.306
  C        8.602     123.675     136.400
  O        7.627     124.223     137.287
  C        8.021     122.903     135.216
  N        5.017     120.043     138.106
  C        4.929     121.388     137.812
  N        3.956     122.080     138.447
  N        5.717     122.000     136.970
  C        6.647     121.185     136.415
  C        6.824     119.833     136.616
  C        5.952     119.172     137.561
  O        5.996     117.989     137.886
  N        7.850     119.343     135.848
  C        8.325     120.399     135.218
  N        7.651     121.545     135.556
  O       12.874     122.216     137.744
  O       13.834     121.570     135.473
  H        7.052     123.486     137.567
  H       13.528     121.535     137.990
  H        4.393     119.619     138.771
  H        9.162     120.394     134.531
  H        7.132     123.401     134.808
  H        9.291     123.056     136.986
  H        3.361     121.682     139.157
  H       10.155     125.207     136.303
  H        3.897     123.075     138.283
  H        9.784     124.715     133.543
  H       11.590     123.002     133.646
  H       12.009     124.474     134.537
  P        9.046     127.223     134.971
  C        7.328     128.360     136.564
  O        7.878     128.277     135.263
  O        9.160     127.212     133.374
  O       10.354     127.497     135.633
  H        9.859     127.826     133.081
  H        7.533     129.351     136.973
  H        7.744     127.603     137.237
  H        6.245     128.216     136.502
  H       15.442     125.162     135.983
  H       15.200     123.856     134.848
  H       15.719     123.510     136.480

 3  4  5  6  7  8  9  10  11  12  23  26  30  31 0
 6-311+G(2d,p)
 ****
 33  35  36  37  38 0
 6-311+G(2d,p)
 ****
 1  2  13  14  15  16  17  18  19  20  21  22  24  25 0
 3-21G
 ****
 27  28  29  32  34  39  40  41  42  43  44  45  46  47  48  49 0
 3-21G
 ****


