%nproc=1
%NoSave
%Mem=1900MB
#P OB98/GEN NMR

erre ene a

0 1
  C     -111.542      65.504      30.574
  O     -111.478      64.129      30.173
  P     -112.757      63.497      29.443
  C     -112.865      64.521      27.053
  O     -112.466      63.428      27.867
  C     -113.366      64.022      25.694
  O     -114.167      65.015      25.023
  C     -112.251      63.677      24.720
  O     -111.729      62.378      24.962
  C     -112.997      63.707      23.395
  O     -113.725      62.476      23.217
  C     -113.970      64.874      23.597
  N     -115.332      69.316      21.443
  C     -116.055      68.242      21.829
  N     -115.619      67.089      22.378
  C     -114.286      67.112      22.534
  C     -113.418      68.134      22.187
  C     -113.990      69.282      21.615
  N     -113.248      70.373      21.226
  N     -112.115      67.793      22.487
  C     -112.198      66.591      23.021
  N     -113.488      66.134      23.062
  O     -113.852      64.659      29.562
  O     -113.239      62.226      30.059
  H     -114.329      62.610      22.462
  H     -114.739      64.267      29.668
  H     -117.128      68.319      21.677
  H     -111.359      66.018      23.391
  H     -114.950      64.682      23.145
  H     -112.326      63.806      22.537
  H     -111.468      64.446      24.729
  H     -113.990      63.135      25.869
  H     -112.028      65.210      26.913
  H     -113.731      71.172      20.849
  H     -112.249      70.361      21.374
  H     -113.644      65.086      27.574
  P     -110.177      62.272      25.354
  C     -111.007      61.359      27.640
  O     -110.106      61.221      26.559
  O     -109.886      63.684      26.049
  O     -109.267      62.015      24.202
  H     -108.954      63.941      25.906
  H     -111.032      60.421      28.198
  H     -112.015      61.584      27.286
  H     -110.664      62.157      28.305
  H     -110.622      65.782      31.044
  H     -112.349      65.637      31.264
  H     -111.703      66.119      29.714

 3  4  5  6  7  8  9  10  11  12  22  25  29  30  31  32 0
 6-311+G(2d,p)
 ****
 33  36  37 0
 6-311+G(2d,p)
 ****
 1  2  13  14  15  16  17  18  19  20  21  23  24  26 0
 3-21G
 ****
 27  28  34  35  38  39  40  41  42  43  44  45  46  47  48 0
 3-21G
 ****


