%nproc=1
%NoSave
%Mem=1900MB
#P OB98/GEN NMR

erre ene a

0 1
  C      482.572    -849.244    -200.910
  O      481.746    -850.100    -200.149
  H      482.879    -849.771    -201.821
  H      483.469    -848.978    -200.347
  H      482.028    -848.333    -201.207
  P      481.034    -849.511    -198.836
  C      483.106    -849.533    -197.304
  O      481.821    -850.090    -197.567
  C      483.876    -850.437    -196.343
  O      483.162    -850.591    -195.114
  C      484.091    -851.850    -196.874
  O      485.095    -851.893    -197.882
  C      484.432    -852.588    -195.583
  O      485.801    -852.409    -195.242
  C      483.521    -851.877    -194.575
  N      482.304    -852.675    -194.263
  C      482.532    -853.843    -193.534
  O      483.614    -854.212    -193.133
  N      481.410    -854.618    -193.318
  C      480.162    -854.414    -193.872
  O      479.280    -855.242    -193.871
  C      480.005    -853.124    -194.609
  C      481.082    -852.354    -194.752
  O      479.542    -849.682    -198.790
  O      481.450    -847.955    -198.848
  H      480.700    -847.429    -199.184
  H      486.315    -852.609    -196.058
  H      481.551    -855.475    -192.830
  H      479.017    -852.893    -194.974
  H      480.978    -851.406    -195.309
  H      484.044    -851.690    -193.634
  H      484.246    -853.669    -195.693
  H      483.154    -852.247    -197.272
  H      484.846    -849.959    -196.116
  H      482.964    -848.544    -196.847
  H      483.647    -849.403    -198.260
  P      484.857    -852.692    -199.249
  C      485.293    -855.029    -198.223
  O      485.730    -854.052    -199.167
  O      485.027    -851.907    -200.495
  O      483.348    -853.245    -199.099
  H      482.864    -853.019    -199.927
  H      485.944    -855.877    -198.260
  H      484.296    -855.334    -198.461
  H      485.312    -854.608    -197.239

 6  7  8  9  10  11  12  13  14  15  16  27  31  32  33  34  35 0
 6-311+G(2d,p)
 ****
 36  37 0
 6-311+G(2d,p)
 ****
 1  2  3  4  5  17  18  19  20  21  22  23  24  25 0
 3-21G
 ****
 26  28  29  30  38  39  40  41  42  43  44  45 0
 3-21G
 ****


