%nproc=1
%NoSave
%Mem=1900MB
#P OB98/GEN NMR

erre ene a

0 1
  C      139.162      14.471    -294.410
  O      140.342      15.155    -293.967
  P      141.829      14.704    -294.376
  C      142.444      13.379    -292.250
  O      142.187      13.320    -293.646
  C      143.459      12.317    -291.811
  O      143.693      12.410    -290.374
  C      143.035      10.869    -292.115
  O      144.217      10.169    -292.516
  C      142.540      10.396    -290.754
  O      142.473       8.987    -290.630
  C      143.579      11.068    -289.850
  N      143.254      11.093    -288.428
  C      143.703      10.026    -287.639
  O      144.301       9.071    -288.132
  N      143.443      10.055    -286.288
  C      142.790      11.048    -285.772
  N      142.576      11.018    -284.429
  C      142.283      12.180    -286.568
  C      142.549      12.138    -287.871
  O      142.857      15.769    -294.160
  O      141.744      14.311    -295.924
  H      142.574      14.569    -296.368
  H      143.354       8.623    -290.831
  H      141.750      12.993    -286.096
  H      142.236      12.950    -288.524
  H      144.553      10.585    -289.995
  H      141.534      10.795    -290.587
  H      142.288      10.789    -292.911
  H      144.416      12.541    -292.299
  H      142.949      10.230    -283.914
  H      141.505      13.210    -291.715
  H      142.087      11.742    -283.922
  H      142.808      14.383    -291.996
  P      144.193       9.269    -293.843
  C      144.611       6.910    -292.815
  O      143.700       7.802    -293.424
  O      145.760       9.024    -294.102
  O      143.562       9.885    -295.049
  H      145.901       8.852    -295.049
  H      144.113       6.425    -291.971
  H      145.506       7.420    -292.448
  H      144.904       6.148    -293.542
  H      138.297      14.956    -294.008
  H      139.191      13.456    -294.073
  H      139.118      14.491    -295.479

 3  4  5  6  7  8  9  10  11  12  13  24  27  28  29  30  32 0
 6-311+G(2d,p)
 ****
 34  35 0
 6-311+G(2d,p)
 ****
 1  2  14  15  16  17  18  19  20  21  22  23  25  26 0
 3-21G
 ****
 31  33  36  37  38  39  40  41  42  43  44  45  46 0
 3-21G
 ****


