%nproc=1
%NoSave
%Mem=1900MB
#P OB98/GEN NMR

erre ene a

0 1
  C      395.565    -272.055    -165.839
  O      396.322    -272.950    -166.633
  P      395.769    -273.425    -168.058
  C      396.575    -271.202    -169.144
  O      395.510    -272.099    -168.923
  C      396.091    -269.929    -169.850
  O      397.247    -269.096    -170.113
  C      395.431    -270.163    -171.207
  O      394.673    -268.998    -171.552
  C      396.629    -270.273    -172.120
  O      396.291    -270.043    -173.486
  C      397.622    -269.255    -171.504
  N      399.013    -269.718    -171.609
  C      399.579    -269.723    -172.878
  O      398.995    -269.298    -173.876
  N      400.808    -270.329    -172.982
  C      401.478    -270.938    -171.963
  O      402.406    -271.720    -172.125
  C      400.944    -270.683    -170.617
  C      399.740    -270.118    -170.505
  O      394.297    -273.949    -167.711
  O      396.584    -274.473    -168.734
  H      395.774    -269.204    -173.517
  H      394.302    -274.915    -167.593
  H      401.151    -270.463    -173.926
  H      401.525    -271.021    -169.767
  H      399.300    -269.966    -169.520
  H      397.549    -268.276    -171.997
  H      397.044    -271.286    -172.049
  H      394.800    -271.051    -171.252
  H      395.415    -269.373    -169.183
  H      397.351    -271.697    -169.732
  H      397.041    -270.923    -168.189
  P      393.267    -269.213    -172.296
  C      391.903    -269.331    -170.122
  O      392.335    -270.025    -171.277
  O      393.344    -269.765    -173.681
  O      392.623    -267.744    -172.275
  H      391.920    -267.685    -172.950
  H      390.939    -269.734    -169.812
  H      391.798    -268.256    -170.316
  H      392.631    -269.482    -169.320
  H      396.091    -271.854    -164.929
  H      394.616    -272.494    -165.613
  H      395.417    -271.141    -166.375

 3  4  5  6  7  8  9  10  11  12  13  23  28  29  30  31  32 0
 6-311+G(2d,p)
 ****
 33  34 0
 6-311+G(2d,p)
 ****
 1  2  14  15  16  17  18  19  20  21  22  24  25  26  27 0
 3-21G
 ****
 35  36  37  38  39  40  41  42  43  44  45 0
 3-21G
 ****


