%nproc=1
%NoSave
%Mem=1900MB
#P OB98/GEN NMR

erre ene a

0 1
  C      381.776    -162.749      49.759
  O      382.436    -162.847      51.004
  H      382.029    -163.625      49.159
  H      382.110    -161.853      49.234
  H      380.690    -162.721      49.892
  P      382.018    -161.851      52.187
  C      379.547    -161.741      52.918
  O      380.741    -162.513      52.904
  C      378.570    -162.268      53.977
  O      378.343    -163.689      53.736
  C      379.070    -162.121      55.419
  O      377.919    -161.949      56.259
  C      379.700    -163.478      55.666
  O      379.877    -163.730      57.046
  C      378.711    -164.393      54.938
  N      379.272    -165.717      54.661
  C      379.441    -166.560      55.751
  O      379.185    -166.226      56.908
  N      379.969    -167.785      55.478
  C      380.394    -168.228      54.256
  O      380.891    -169.329      54.078
  C      380.224    -167.278      53.140
  C      379.677    -166.081      53.393
  O      381.846    -160.420      51.799
  O      383.167    -162.037      53.286
  H      379.027    -163.990      57.459
  H      383.292    -161.206      53.784
  H      380.097    -168.419      56.260
  H      380.558    -167.584      52.164
  H      379.535    -165.359      52.596
  H      377.801    -164.532      55.534
  H      380.690    -163.536      55.201
  H      379.768    -161.294      55.554
  H      377.604    -161.767      53.839
  H      379.093    -161.796      51.928
  H      379.795    -160.689      53.135
  P      377.557    -160.536      56.931
  C      376.019    -158.592      56.218
  O      376.171    -160.011      56.310
  O      378.665    -159.539      56.886
  O      377.176    -160.890      58.446
  H      377.370    -160.126      59.022
  H      375.064    -158.362      55.793
  H      376.792    -158.190      55.597
  H      376.087    -158.162      57.195

 6  7  8  9  10  11  12  13  14  15  16  26  31  32  33  34  35 0
 6-311+G(2d,p)
 ****
 36  37 0
 6-311+G(2d,p)
 ****
 1  2  3  4  5  17  18  19  20  21  22  23  24  25 0
 3-21G
 ****
 27  28  29  30  38  39  40  41  42  43  44  45 0
 3-21G
 ****


