%nproc=1
%NoSave
%Mem=1900MB
#P OB98/GEN NMR

erre ene a

0 1
  C      201.136    -273.222      43.114
  O      200.792    -274.537      43.538
  P      201.977    -275.563      43.868
  C      202.291    -275.074      46.398
  O      202.818    -274.934      45.084
  C      203.409    -275.091      47.439
  O      202.816    -275.148      48.767
  C      204.376    -276.276      47.321
  O      205.668    -275.817      47.737
  C      203.843    -277.258      48.349
  O      204.825    -278.208      48.753
  C      203.395    -276.290      49.442
  N      200.832    -275.715      53.828
  C      201.718    -274.916      53.194
  N      202.356    -275.137      52.029
  C      202.007    -276.327      51.509
  C      201.141    -277.264      52.064
  C      200.533    -276.917      53.281
  N      199.624    -277.725      53.923
  N      201.054    -278.378      51.254
  C      201.847    -278.122      50.231
  N      202.424    -276.884      50.337
  O      202.950    -275.388      42.610
  O      201.560    -276.986      44.040
  H      204.430    -278.777      49.440
  H      202.940    -276.201      42.063
  H      201.935    -273.973      53.690
  H      202.040    -278.787      49.407
  H      204.233    -275.931      50.050
  H      202.992    -277.809      47.932
  H      204.433    -276.711      46.316
  H      203.956    -274.143      47.374
  H      201.747    -276.023      46.456
  H      199.128    -277.349      54.719
  H      199.251    -278.528      53.433
  H      201.596    -274.258      46.599
  P      206.940    -276.612      47.170
  C      206.726    -275.291      44.948
  O      206.843    -276.553      45.576
  O      206.609    -278.138      47.520
  O      208.242    -276.177      47.761
  H      207.435    -278.640      47.630
  H      207.237    -275.325      43.982
  H      207.164    -274.489      45.555
  H      205.665    -275.070      44.780
  H      200.243    -272.660      42.934
  H      201.711    -273.277      42.213
  H      201.712    -272.741      43.876

 3  4  5  6  7  8  9  10  11  12  22  25  29  30  31  32 0
 6-311+G(2d,p)
 ****
 33  36  37 0
 6-311+G(2d,p)
 ****
 1  2  13  14  15  16  17  18  19  20  21  23  24  26 0
 3-21G
 ****
 27  28  34  35  38  39  40  41  42  43  44  45  46  47  48 0
 3-21G
 ****


