%nproc=1
%NoSave
%Mem=1900MB
#P OB98/GEN NMR

erre ene a

0 1
  C     -199.409     -95.429    -371.278
  O     -199.598     -95.761    -372.639
  H     -198.464     -94.893    -371.174
  H     -199.366     -96.338    -370.674
  H     -200.221     -94.786    -370.925
  P     -200.988     -96.454    -373.034
  C     -201.897     -95.103    -375.068
  O     -201.167     -96.235    -374.616
  C     -200.930     -93.992    -375.478
  O     -199.988     -94.532    -376.446
  C     -201.624     -92.793    -376.133
  O     -200.955     -91.593    -375.738
  C     -201.409     -93.034    -377.619
  O     -201.483     -91.856    -378.407
  C     -200.022     -93.681    -377.611
  N     -199.750     -94.449    -378.821
  C     -198.779     -93.956    -379.692
  O     -198.084     -92.963    -379.473
  N     -198.623     -94.656    -380.859
  C     -199.338     -95.754    -381.247
  O     -199.165     -96.323    -382.318
  C     -200.352     -96.223    -380.290
  C     -200.511     -95.558    -379.144
  O     -202.085     -95.472    -372.405
  O     -201.154     -97.867    -372.584
  H     -202.307     -95.747    -371.494
  H     -200.973     -91.154    -377.948
  H     -197.925     -94.312    -381.501
  H     -200.944     -97.084    -380.567
  H     -201.260     -95.867    -378.423
  H     -199.243     -92.914    -377.479
  H     -202.162     -93.740    -377.995
  H     -202.683     -92.725    -375.883
  H     -200.347     -93.682    -374.600
  H     -202.538     -94.742    -374.256
  H     -202.524     -95.391    -375.915
  P     -201.787     -90.544    -374.847
  C     -199.913     -89.020    -373.840
  O     -200.915     -89.194    -374.830
  O     -201.601     -91.156    -373.384
  O     -203.201     -90.388    -375.301
  H     -200.722     -91.545    -373.232
  H     -199.436     -88.072    -373.978
  H     -199.187     -89.801    -373.927
  H     -200.361     -89.056    -372.869

 6  7  8  9  10  11  12  13  14  15  16  27  31  32  33  34  35 0
 6-311+G(2d,p)
 ****
 36  37 0
 6-311+G(2d,p)
 ****
 1  2  3  4  5  17  18  19  20  21  22  23  24  25 0
 3-21G
 ****
 26  28  29  30  38  39  40  41  42  43  44  45 0
 3-21G
 ****


