%nproc=1
%NoSave
%Mem=1900MB
#P OB98/GEN NMR

erre ene a

0 1
  C       82.142     400.306     109.327
  O       81.483     399.038     109.330
  P       81.361     398.210     107.965
  C       82.887     396.320     108.856
  O       82.638     397.253     107.810
  C       84.355     395.882     108.828
  O       85.250     397.016     108.937
  C       84.728     394.984     110.003
  O       84.173     393.686     110.006
  C       86.243     395.094     110.025
  O       86.851     394.209     109.088
  C       86.452     396.569     109.600
  N       86.795     397.438     110.726
  C       88.069     397.997     110.698
  O       88.895     397.756     109.822
  N       88.379     398.822     111.747
  C       87.572     399.107     112.810
  O       87.909     399.834     113.733
  C       86.247     398.467     112.791
  C       85.923     397.675     111.768
  O       81.011     399.005     106.754
  O       80.188     397.159     108.297
  H       87.811     394.214     109.263
  H       79.622     397.088     107.505
  H       89.297     399.241     111.740
  H       85.580     398.667     113.620
  H       84.950     397.197     111.736
  H       87.262     396.641     108.861
  H       86.648     394.847     111.013
  H       84.361     395.464     110.921
  H       84.556     395.397     107.874
  H       82.231     395.457     108.746
  H       82.628     396.786     109.816
  P       82.641     393.383     110.370
  C       81.920     392.907     107.925
  O       81.745     393.699     109.078
  O       82.139     393.875     111.688
  O       82.632     391.777     110.389
  H       81.987     391.479     111.057
  H       81.245     393.268     107.146
  H       81.679     391.863     108.139
  H       82.949     392.986     107.561
  H       82.132     400.716     110.315
  H       81.634     400.971     108.660
  H       83.154     400.181     109.003

 3  4  5  6  7  8  9  10  11  12  13  23  28  29  30  31  32 0
 6-311+G(2d,p)
 ****
 33  34 0
 6-311+G(2d,p)
 ****
 1  2  14  15  16  17  18  19  20  21  22  24  25  26  27 0
 3-21G
 ****
 35  36  37  38  39  40  41  42  43  44  45 0
 3-21G
 ****


