%nproc=1
%NoSave
%Mem=1900MB
#P OB98/GEN NMR

erre ene a

0 1
  C       69.118      63.532     791.613
  O       68.568      64.764     791.184
  H       68.748      62.734     790.958
  H       68.798      63.312     792.643
  H       70.206      63.562     791.558
  P       68.953      66.091     791.995
  C       69.191      66.698     794.505
  O       68.728      65.740     793.544
  C       68.280      66.692     795.721
  O       67.657      65.400     795.887
  C       69.008      66.991     797.032
  O       69.197      68.385     797.187
  C       68.019      66.403     798.037
  O       66.909      67.301     798.196
  C       67.578      65.121     797.306
  N       67.598      60.472     799.340
  C       66.591      61.413     799.288
  N       65.425      61.080     799.901
  N       66.698      62.574     798.707
  C       67.945      62.800     798.195
  C       69.035      61.957     798.208
  C       68.873      60.636     798.809
  O       69.739      59.769     798.856
  N       70.136      62.554     797.647
  C       69.703      63.743     797.272
  N       68.388      63.945     797.594
  O       68.285      67.358     791.557
  O       70.547      66.179     791.865
  H       66.492      67.401     797.311
  H       70.806      66.723     791.102
  H       67.456      59.602     799.817
  H       70.297      64.480     796.761
  H       66.536      64.862     797.531
  H       68.452      66.238     799.021
  H       65.386      60.345     800.581
  H       69.956      66.442     797.111
  H       64.690      61.775     799.913
  H       67.476      67.423     795.548
  H       69.186      67.680     794.009
  H       70.218      66.461     794.804
  P       69.987      68.980     798.450
  C       69.491      69.136     800.988
  O       68.995      68.787     799.704
  O       70.508      70.362     798.283
  O       71.139      67.903     798.759
  H       71.972      68.065     798.250
  H       68.734      68.959     801.723
  H       69.762      70.171     800.997
  H       70.351      68.541     801.212

 6  7  8  9  10  11  12  13  14  15  26  29  33  34 0
 6-311+G(2d,p)
 ****
 36  38  39  40  41 0
 6-311+G(2d,p)
 ****
 1  2  3  4  5  16  17  18  19  20  21  22  23  24  25 0
 3-21G
 ****
 27  28  30  31  32  35  37  42  43  44  45  46  47 0
 3-21G
 ****
 48  49 0
 3-21G
 ****


