%nproc=1
%NoSave
%Mem=1900MB
#P OB98/GEN NMR

erre ene a

0 1
  C      438.269      -4.099      83.717
  O      439.241      -5.140      83.843
  P      438.762      -6.660      83.618
  C      437.914      -7.485      85.927
  O      437.557      -6.976      84.639
  C      436.875      -8.501      86.415
  O      435.571      -7.872      86.452
  C      436.716      -9.740      85.511
  O      437.555     -10.870      85.756
  C      435.290     -10.172      85.856
  O      435.296     -10.967      87.064
  C      434.555      -8.851      86.114
  N      431.281     -10.272      82.450
  C      431.878     -10.959      83.455
  N      432.736     -10.507      84.391
  C      432.958      -9.195      84.229
  C      432.437      -8.355      83.250
  C      431.550      -8.950      82.320
  N      430.959      -8.249      81.298
  N      432.906      -7.069      83.402
  C      433.726      -7.133      84.442
  N      433.785      -8.394      84.985
  O      439.849      -7.678      83.575
  O      437.997      -6.569      82.212
  H      435.655     -11.836      86.817
  H      438.182      -7.389      81.703
  H      431.630     -12.023      83.513
  H      434.298      -6.293      84.825
  H      433.874      -8.918      86.967
  H      434.844     -10.789      85.074
  H      436.771      -9.459      84.457
  H      437.131      -8.824      87.436
  H      437.979      -6.652      86.641
  H      430.376      -8.760      80.654
  H      431.187      -7.277      81.161
  H      438.922      -7.906      85.839
  P      438.742     -11.255      84.755
  C      437.696     -13.374      83.603
  O      438.033     -11.997      83.515
  O      439.871     -12.018      85.374
  O      439.154      -9.840      84.143
  H      438.484      -9.447      83.555
  H      437.036     -13.628      82.764
  H      437.164     -13.585      84.538
  H      438.604     -13.983      83.546
  H      438.735      -3.152      83.893
  H      437.489      -4.251      84.433
  H      437.856      -4.115      82.730

 3  4  5  6  7  8  9  10  11  12  22  25  29  30  31  32 0
 6-311+G(2d,p)
 ****
 33  36  37 0
 6-311+G(2d,p)
 ****
 1  2  13  14  15  16  17  18  19  20  21  23  24  26 0
 3-21G
 ****
 27  28  34  35  38  39  40  41  42  43  44  45  46  47  48 0
 3-21G
 ****


