%nproc=1
%NoSave
%Mem=1900MB
#P OB98/GEN NMR

erre ene a

0 1
  C      118.977     130.545     -34.824
  O      120.011     131.248     -35.489
  P      121.287     130.459     -36.046
  C      122.574     131.065     -33.867
  O      122.182     130.061     -34.778
  C      123.931     131.666     -34.255
  O      124.221     132.743     -33.331
  C      125.109     130.703     -34.157
  O      126.195     131.234     -34.921
  C      125.444     130.772     -32.684
  O      126.769     130.325     -32.410
  C      125.162     132.258     -32.344
  N      124.604     132.406     -30.988
  C      125.513     132.461     -29.936
  O      126.732     132.467     -30.105
  N      124.976     132.422     -28.679
  C      123.650     132.288     -28.392
  O      123.218     131.949     -27.297
  C      122.733     132.478     -29.528
  C      123.244     132.501     -30.761
  O      122.131     131.612     -36.764
  O      120.975     129.338     -36.977
  H      126.948     130.532     -31.463
  H      121.944     131.622     -37.721
  H      125.640     132.315     -27.921
  H      121.673     132.529     -29.323
  H      122.587     132.587     -31.622
  H      126.075     132.862     -32.402
  H      124.755     130.123     -32.129
  H      124.883     129.682     -34.477
  H      123.864     132.094     -35.262
  H      122.613     130.643     -32.859
  H      121.826     131.865     -33.839
  P      126.957     130.245     -35.927
  C      129.282     130.698     -34.937
  O      128.268     129.739     -35.155
  O      127.185     130.764     -37.307
  O      126.023     128.941     -35.928
  H      126.217     128.399     -36.715
  H      129.826     130.436     -34.026
  H      128.866     131.703     -34.825
  H      129.977     130.685     -35.781
  H      118.213     131.232     -34.525
  H      119.376     130.057     -33.959
  H      118.560     129.814     -35.485

 3  4  5  6  7  8  9  10  11  12  13  23  28  29  30  31  32 0
 6-311+G(2d,p)
 ****
 33  34 0
 6-311+G(2d,p)
 ****
 1  2  14  15  16  17  18  19  20  21  22  24  25  26  27 0
 3-21G
 ****
 35  36  37  38  39  40  41  42  43  44  45 0
 3-21G
 ****


