%nproc=1
%NoSave
%Mem=1900MB
#P OB98/GEN NMR

erre ene a

0 1
  C      325.402    -160.939    -192.358
  O      324.982    -160.197    -191.217
  P      325.800    -160.086    -189.852
  C      324.432    -161.768    -188.374
  O      325.639    -161.465    -189.062
  C      324.528    -163.033    -187.505
  O      324.853    -164.172    -188.346
  C      325.666    -162.910    -186.488
  O      325.454    -162.228    -185.269
  C      326.201    -164.323    -186.325
  O      325.607    -165.007    -185.226
  C      325.808    -164.996    -187.647
  N      329.747    -168.093    -188.701
  C      328.850    -168.151    -187.659
  N      329.045    -169.124    -186.741
  N      327.851    -167.316    -187.513
  C      327.820    -166.337    -188.442
  C      328.668    -166.160    -189.510
  C      329.734    -167.123    -189.701
  O      330.552    -167.123    -190.616
  N      328.345    -165.040    -190.234
  C      327.319    -164.523    -189.590
  N      326.956    -165.281    -188.495
  O      325.592    -158.833    -189.072
  O      327.340    -160.103    -190.342
  H      325.651    -165.964    -185.404
  H      327.841    -159.549    -189.709
  H      330.484    -168.774    -188.784
  H      326.795    -163.615    -189.869
  H      325.321    -165.959    -187.464
  H      327.280    -164.312    -186.142
  H      329.857    -169.721    -186.737
  H      326.473    -162.346    -186.985
  H      328.523    -169.040    -185.871
  H      323.562    -163.269    -187.047
  H      323.658    -161.883    -189.136
  H      324.135    -160.920    -187.755
  P      326.167    -160.867    -184.804
  C      328.274    -162.121    -184.061
  O      327.750    -161.084    -184.877
  O      325.895    -160.808    -183.229
  O      325.667    -159.631    -185.481
  H      326.049    -159.904    -182.889
  H      329.353    -161.977    -183.950
  H      328.086    -163.092    -184.528
  H      327.814    -162.108    -183.067
  H      324.671    -160.845    -193.133
  H      325.511    -161.970    -192.093
  H      326.340    -160.559    -192.705

 3  4  5  6  7  8  9  10  11  12  23  26  30  31 0
 6-311+G(2d,p)
 ****
 33  35  36  37  38 0
 6-311+G(2d,p)
 ****
 1  2  13  14  15  16  17  18  19  20  21  22  24  25 0
 3-21G
 ****
 27  28  29  32  34  39  40  41  42  43  44  45  46  47  48  49 0
 3-21G
 ****


