%nproc=1
%NoSave
%Mem=1900MB
#P OB98/GEN NMR

erre ene a

0 1
  C       70.769     388.017    -117.785
  O       71.191     387.092    -116.804
  H       70.114     388.755    -117.315
  H       70.207     387.501    -118.571
  H       71.629     388.532    -118.221
  P       72.199     385.941    -117.283
  C       70.525     384.002    -117.740
  O       71.368     385.007    -118.292
  C       70.362     382.859    -118.738
  O       69.843     383.379    -119.983
  C       71.664     382.153    -119.098
  O       72.060     381.226    -118.101
  C       71.289     381.497    -120.422
  O       70.604     380.254    -120.221
  C       70.332     382.527    -121.045
  N       71.443     382.770    -126.012
  C       70.726     381.882    -125.287
  N       70.461     381.899    -123.964
  C       71.016     382.979    -123.387
  C       71.779     383.964    -123.995
  C       71.988     383.836    -125.376
  N       72.749     384.715    -126.104
  N       72.211     384.884    -123.058
  C       71.712     384.467    -121.913
  N       70.981     383.325    -122.063
  O       72.358     385.034    -115.971
  O       73.516     386.420    -117.797
  H       69.713     380.476    -119.893
  H       73.152     385.312    -115.477
  H       70.314     381.043    -125.847
  H       71.859     384.952    -120.951
  H       69.460     382.053    -121.505
  H       72.172     381.289    -121.025
  H       72.458     382.888    -119.278
  H       69.631     382.147    -118.334
  H       69.542     384.434    -117.521
  H       70.970     383.639    -116.806
  H       72.874     384.551    -127.089
  H       73.247     385.452    -125.621
  P       73.610     381.129    -117.717
  C       74.233     379.555    -119.689
  O       74.426     380.810    -119.062
  O       73.700     379.765    -116.883
  O       74.131     382.293    -116.938
  H       73.719     379.953    -115.926
  H       74.843     379.497    -120.566
  H       73.204     379.447    -119.962
  H       74.506     378.772    -119.012

 6  7  8  9  10  11  12  13  14  15  25  28  32  33  34  35 0
 6-311+G(2d,p)
 ****
 36  37  40 0
 6-311+G(2d,p)
 ****
 1  2  3  4  5  16  17  18  19  20  21  22  23  24 0
 3-21G
 ****
 26  27  29  30  31  38  39 41  42  43  44  45  46  47  48 0
 3-21G
 ****


