%nproc=1
%NoSave
%Mem=1900MB
#P OB98/GEN NMR

erre ene a

0 1
  C      -21.380       2.849     -84.874
  O      -21.710       4.190     -85.235
  P      -23.254       4.579     -85.429
  C      -23.113       6.420     -83.634
  O      -23.445       6.108     -84.982
  C      -22.799       7.910     -83.485
  O      -21.467       8.221     -83.939
  C      -23.721       8.802     -84.297
  O      -25.001       8.890     -83.696
  C      -22.929      10.101     -84.328
  O      -23.129      10.856     -83.122
  C      -21.472       9.591     -84.396
  N      -20.881       9.714     -85.719
  C      -20.462      10.998     -86.087
  O      -20.638      11.949     -85.326
  N      -19.872      11.170     -87.314
  C      -19.720      10.154     -88.105
  N      -19.125      10.382     -89.307
  C      -20.159       8.787     -87.760
  C      -20.732       8.643     -86.568
  O      -24.239       3.618     -84.853
  O      -23.398       4.666     -87.027
  H      -22.485      11.590     -83.154
  H      -24.312       4.425     -87.273
  H      -20.004       7.972     -88.452
  H      -21.087       7.674     -86.235
  H      -20.841      10.152     -83.695
  H      -23.229      10.741     -85.162
  H      -23.817       8.405     -85.315
  H      -22.873       8.169     -82.419
  H      -18.844      11.329     -89.523
  H      -22.252       5.824     -83.323
  H      -18.918       9.649     -89.969
  H      -23.949       6.128     -82.987
  P      -26.190       9.522     -84.565
  C      -27.569       7.329     -84.520
  O      -27.528       8.711     -84.228
  O      -25.836       9.046     -86.056
  O      -26.301      11.009     -84.488
  H      -26.109       9.733     -86.691
  H      -28.393       6.877     -83.957
  H      -26.638       6.832     -84.237
  H      -27.753       7.183     -85.587
  H      -20.318       2.755     -84.785
  H      -21.735       2.179     -85.629
  H      -21.839       2.608     -83.938

 3  4  5  6  7  8  9  10  11  12  13  23  27  28  29  30  32 0
 6-311+G(2d,p)
 ****
 34  35 0
 6-311+G(2d,p)
 ****
 1  2  14  15  16  17  18  19  20  21  22  24  25  26 0
 3-21G
 ****
 31  33  36  37  38  39  40  41  42  43  44  45  46 0
 3-21G
 ****


