%nproc=1
%NoSave
%Mem=1900MB
#P OB98/GEN NMR

erre ene a

0 1
  C        9.240     173.226     317.109
  O        9.323     174.604     317.409
  H        9.192     172.667     318.045
  H       10.129     172.908     316.558
  H        8.342     173.007     316.525
  P        9.201     175.664     316.212
  C        6.622     175.667     316.262
  O        7.791     175.397     315.498
  C        5.515     176.192     315.351
  O        4.259     176.227     316.062
  C        5.746     177.613     314.848
  O        6.714     177.634     313.817
  C        4.336     177.988     314.412
  O        4.037     177.438     313.121
  C        3.483     177.311     315.513
  N        3.059     178.238     316.563
  C        1.866     178.924     316.338
  O        1.209     178.805     315.305
  N        1.467     179.766     317.341
  C        2.167     180.049     318.478
  O        1.789     180.857     319.323
  C        3.433     179.321     318.646
  C        3.814     178.464     317.697
  O       10.370     175.736     315.284
  O        8.963     177.057     316.967
  H        3.165     177.794     312.859
  H        9.799     177.557     317.005
  H        0.614     180.281     317.190
  H        4.020     179.523     319.532
  H        4.749     177.919     317.798
  H        2.582     176.862     315.070
  H        4.193     179.066     314.335
  H        6.041     178.265     315.678
  H        5.407     175.495     314.510
  H        6.863     176.424     317.016
  H        6.308     174.749     316.766
  P        7.109     179.006     313.096
  C        9.242     179.455     314.435
  O        7.920     179.896     314.157
  O        5.983     179.717     312.418
  O        8.235     178.580     312.043
  H        7.865     178.591     311.135
  H        9.694     180.111     315.149
  H        9.817     179.460     313.532
  H        9.211     178.462     314.833

 6  7  8  9  10  11  12  13  14  15  16  26  31  32  33  34  35 0
 6-311+G(2d,p)
 ****
 36  37 0
 6-311+G(2d,p)
 ****
 1  2  3  4  5  17  18  19  20  21  22  23  24  25 0
 3-21G
 ****
 27  28  29  30  38  39  40  41  42  43  44  45 0
 3-21G
 ****


