%nproc=1
%NoSave
%Mem=1900MB
#P OB98/GEN NMR

erre ene a

0 1
  C      525.902     457.871    -833.352
  O      525.955     459.263    -833.652
  P      524.592     460.102    -833.536
  C      523.773     462.084    -832.073
  O      524.860     461.237    -832.448
  C      524.273     463.233    -831.185
  O      524.718     462.725    -829.904
  C      525.480     463.986    -831.753
  O      525.091     464.969    -832.713
  C      526.003     464.662    -830.502
  O      525.220     465.824    -830.186
  C      525.780     463.568    -829.437
  N      529.903     462.964    -826.452
  C      528.943     463.924    -826.478
  N      527.896     464.029    -827.318
  C      527.889     463.017    -828.219
  C      528.824     461.993    -828.316
  C      529.869     461.982    -827.374
  N      530.817     460.989    -827.328
  N      528.496     461.143    -829.363
  C      527.373     461.636    -829.864
  N      526.965     462.769    -829.197
  O      523.596     459.088    -832.787
  O      524.027     460.567    -834.843
  H      525.415     466.501    -830.875
  H      522.684     459.320    -832.978
  H      529.048     464.716    -825.742
  H      526.823     461.221    -830.699
  H      525.473     463.994    -828.467
  H      527.045     465.006    -830.604
  H      526.231     463.301    -832.143
  H      523.436     463.916    -831.020
  H      523.038     461.503    -831.516
  H      531.416     460.952    -826.520
  H      530.677     460.160    -827.881
  H      523.309     462.478    -832.980
  P      526.081     465.204    -833.944
  C      525.810     466.308    -836.289
  O      525.182     465.849    -835.101
  O      526.379     463.716    -834.473
  O      527.341     465.946    -833.582
  H      527.245     463.681    -834.932
  H      525.059     466.412    -837.066
  H      526.561     465.574    -836.640
  H      526.294     467.271    -836.112
  H      526.876     457.443    -833.470
  H      525.217     457.389    -834.018
  H      525.573     457.736    -832.343

 3  4  5  6  7  8  9  10  11  12  22  25  29  30  31  32 0
 6-311+G(2d,p)
 ****
 33  36  37 0
 6-311+G(2d,p)
 ****
 1  2  13  14  15  16  17  18  19  20  21  23  24  26 0
 3-21G
 ****
 27  28  34  35  38  39  40  41  42  43  44  45  46  47  48 0
 3-21G
 ****


