%nproc=1
%NoSave
%Mem=1900MB
#P OB98/GEN NMR

erre ene a

0 1
  C       49.227     -13.147    -105.395
  O       48.749     -14.109    -106.341
  P       48.759     -15.653    -105.892
  C       50.351     -17.675    -106.366
  O       50.082     -16.293    -106.545
  C       51.400     -18.161    -107.374
  O       50.836     -18.138    -108.721
  C       52.693     -17.331    -107.395
  O       53.772     -18.252    -107.615
  C       52.509     -16.436    -108.604
  O       53.749     -15.950    -109.103
  C       51.758     -17.385    -109.545
  N       51.059     -16.682    -110.622
  C       51.846     -15.943    -111.501
  O       53.060     -15.803    -111.361
  N       51.173     -15.330    -112.527
  C       49.819     -15.320    -112.706
  O       49.271     -14.754    -113.647
  C       49.036     -16.025    -111.679
  C       49.683     -16.659    -110.702
  O       47.557     -16.246    -106.763
  O       48.618     -15.831    -104.414
  H       47.493     -15.853    -107.652
  H       54.084     -15.259    -108.499
  H       51.729     -14.813    -113.199
  H       47.954     -15.989    -111.758
  H       49.136     -17.163    -109.917
  H       52.453     -18.104    -109.997
  H       51.879     -15.576    -108.339
  H       52.861     -16.782    -106.460
  H       51.634     -19.211    -107.143
  H       49.433     -18.254    -106.508
  H       50.680     -17.849    -105.335
  P       55.139     -18.031    -106.794
  C       57.383     -16.757    -107.270
  O       56.037     -16.998    -107.628
  O       55.866     -19.440    -107.071
  O       54.967     -17.751    -105.334
  H       55.841     -19.700    -108.006
  H       57.871     -16.219    -108.090
  H       57.916     -17.694    -107.106
  H       57.420     -16.142    -106.370
  H       49.165     -12.167    -105.820
  H       50.245     -13.365    -105.148
  H       48.628     -13.190    -104.509

 3  4  5  6  7  8  9  10  11  12  13  24  28  29  30  31  32 0
 6-311+G(2d,p)
 ****
 33  34 0
 6-311+G(2d,p)
 ****
 1  2  14  15  16  17  18  19  20  21  22  23  25  26  27 0
 3-21G
 ****
 35  36  37  38  39  40  41  42  43  44  45 0
 3-21G
 ****


