%nproc=1
%NoSave
%Mem=1900MB
#P OB98/GEN NMR

erre ene a

0 1
  C     -303.487    -588.675    -119.639
  O     -303.138    -589.562    -120.679
  H     -302.573    -588.283    -119.188
  H     -304.057    -589.200    -118.862
  H     -304.078    -587.843    -120.035
  P     -304.343    -590.289    -121.447
  C     -303.195    -589.381    -123.561
  O     -304.420    -589.538    -122.862
  C     -303.419    -589.500    -125.081
  O     -303.838    -590.858    -125.370
  C     -304.480    -588.545    -125.611
  O     -304.088    -588.064    -126.897
  C     -305.706    -589.430    -125.761
  O     -306.615    -588.936    -126.751
  C     -305.083    -590.780    -126.104
  N     -309.324    -593.299    -127.423
  C     -308.617    -592.319    -128.046
  N     -307.477    -591.728    -127.620
  C     -307.071    -592.247    -126.466
  C     -307.678    -593.224    -125.706
  C     -308.869    -593.769    -126.230
  N     -309.607    -594.733    -125.603
  N     -306.956    -593.480    -124.538
  C     -305.923    -592.663    -124.607
  N     -305.956    -591.894    -125.734
  O     -305.634    -590.365    -120.692
  O     -303.688    -591.697    -121.837
  H     -307.360    -589.557    -126.832
  H     -302.784    -591.588    -122.173
  H     -309.006    -591.980    -128.995
  H     -305.137    -592.579    -123.867
  H     -304.851    -590.886    -127.174
  H     -306.251    -589.488    -124.801
  H     -304.667    -587.699    -124.945
  H     -302.444    -589.352    -125.589
  H     -302.462    -590.138    -123.235
  H     -310.447    -595.067    -126.058
  H     -309.275    -595.110    -124.720
  H     -302.801    -588.389    -123.314
  P     -302.817    -587.084    -126.984
  C     -301.746    -588.505    -128.861
  O     -301.563    -587.906    -127.580
  O     -302.533    -586.274    -125.765
  O     -303.213    -586.124    -128.221
  H     -302.920    -585.217    -128.033
  H     -300.851    -589.018    -129.146
  H     -301.967    -587.745    -129.582
  H     -302.557    -589.201    -128.817

 6  7  8  9  10  11  12  13  14  15  25  28  32  33  34  35 0
 6-311+G(2d,p)
 ****
 36  39  40 0
 6-311+G(2d,p)
 ****
 1  2  3  4  5  16  17  18  19  20  21  22  23  24 0
 3-21G
 ****
 26  27  29  30  31  37  38  41  42  43  44  45  46  47 0
 3-21G
 ****
 48 0
 3-21G
 ****


