%nproc=1
%NoSave
%Mem=1900MB
#P OB98/GEN NMR

erre ene a

0 1
  C     -885.861      90.843    -934.146
  O     -886.952      91.673    -933.755
  P     -886.697      93.038    -932.956
  C     -888.111      92.195    -930.972
  O     -886.830      92.642    -931.403
  C     -888.185      92.205    -929.450
  O     -887.065      91.433    -928.939
  C     -888.066      93.565    -928.771
  O     -889.288      94.293    -928.696
  C     -887.629      93.165    -927.370
  O     -888.774      92.706    -926.635
  C     -886.681      92.003    -927.652
  N     -882.541      93.230    -924.890
  C     -883.782      92.822    -924.533
  N     -884.837      92.534    -925.331
  C     -884.494      92.661    -926.624
  C     -883.277      93.067    -927.141
  C     -882.268      93.368    -926.215
  N     -881.001      93.770    -926.585
  N     -883.316      93.106    -928.526
  C     -884.542      92.711    -928.822
  N     -885.283      92.424    -927.713
  O     -887.543      94.193    -933.397
  O     -885.121      93.316    -933.129
  H     -888.505      92.650    -925.693
  H     -884.927      94.249    -932.902
  H     -883.959      92.709    -923.464
  H     -884.923      92.620    -929.835
  H     -886.755      91.203    -926.902
  H     -887.192      93.999    -926.809
  H     -887.271      94.174    -929.241
  H     -889.106      91.693    -929.144
  H     -888.257      91.171    -931.338
  H     -880.299      93.832    -925.855
  H     -880.750      93.698    -927.561
  H     -888.883      92.830    -931.407
  P     -889.191      95.868    -928.359
  C     -890.373      95.556    -926.033
  O     -889.228      95.952    -926.760
  O     -890.180      96.712    -929.066
  O     -887.671      96.207    -928.716
  H     -887.003      95.795    -928.143
  H     -890.134      95.543    -924.976
  H     -890.701      94.558    -926.335
  H     -891.188      96.273    -926.207
  H     -886.234      89.985    -934.665
  H     -885.323      90.528    -933.276
  H     -885.207      91.393    -934.790

 3  4  5  6  7  8  9  10  11  12  22  25  29  30  31  32 0
 6-311+G(2d,p)
 ****
 33  36  37 0
 6-311+G(2d,p)
 ****
 1  2  13  14  15  16  17  18  19  20  21  23  24  26 0
 3-21G
 ****
 27  28  34  35  38  39  40  41  42  43  44  45  46  47  48 0
 3-21G
 ****


