%nproc=1
%NoSave
%Mem=1900MB
#P OB98/GEN NMR

erre ene a

0 1
  C       83.575     435.899    -236.538
  O       83.688     437.228    -236.086
  H       82.521     435.684    -236.751
  H       83.923     435.204    -235.760
  H       84.146     435.742    -237.456
  P       85.148     437.862    -235.897
  C       86.284     438.395    -233.642
  O       85.674     437.406    -234.454
  C       87.027     437.750    -232.473
  O       86.079     437.229    -231.497
  C       87.884     436.554    -232.877
  O       89.082     436.983    -233.503
  C       88.073     435.868    -231.523
  O       89.106     436.523    -230.763
  C       86.692     436.083    -230.879
  N       85.807     434.900    -230.989
  C       86.003     433.905    -230.027
  O       86.856     433.965    -229.154
  N       85.148     432.823    -230.130
  C       84.234     432.607    -231.117
  O       83.533     431.605    -231.191
  C       84.121     433.685    -232.120
  C       84.897     434.758    -232.015
  O       85.267     439.326    -236.173
  O       86.066     437.009    -236.903
  H       89.165     436.045    -229.920
  H       86.219     437.510    -237.724
  H       85.271     432.086    -229.451
  H       83.401     433.543    -232.927
  H       84.821     435.553    -232.753
  H       86.792     436.313    -229.818
  H       88.377     434.820    -231.625
  H       87.319     435.881    -233.536
  H       87.636     438.511    -231.978
  H       85.496     439.058    -233.235
  H       86.970     438.999    -234.253
  P       89.928     435.980    -234.430
  C       90.963     433.657    -234.152
  O       89.968     434.554    -233.691
  O       91.272     436.503    -234.867
  O       88.973     435.723    -235.698
  H       89.301     436.204    -236.476
  H       90.904     432.744    -233.598
  H       91.929     434.095    -234.015
  H       90.807     433.455    -235.191

 6  7  8  9  10  11  12  13  14  15  16  26  31  32  33  34  35 0
 6-311+G(2d,p)
 ****
 36  37 0
 6-311+G(2d,p)
 ****
 1  2  3  4  5  17  18  19  20  21  22  23  24  25 0
 3-21G
 ****
 27  28  29  30  38  39  40  41  42  43  44  45 0
 3-21G
 ****


