%nproc=1
%NoSave
%Mem=1900MB
#P OB98/GEN NMR

erre ene a

0 1
  C       -7.626    -596.691     389.062
  O       -7.518    -595.863     387.902
  P       -6.185    -594.966     387.801
  C       -7.406    -592.703     388.117
  O       -6.617    -593.517     387.265
  C       -8.139    -591.607     387.320
  O       -7.184    -590.634     386.798
  C       -8.932    -592.151     386.123
  O      -10.108    -591.334     385.995
  C       -7.977    -591.900     384.968
  O       -8.600    -591.969     383.693
  C       -7.425    -590.535     385.374
  N       -5.158    -586.853     382.660
  C       -6.380    -586.935     383.226
  N       -6.919    -587.959     383.930
  C       -6.038    -588.965     384.038
  C       -4.753    -589.026     383.516
  C       -4.312    -587.904     382.798
  N       -3.077    -587.815     382.197
  N       -4.162    -590.250     383.811
  C       -5.105    -590.927     384.445
  N       -6.222    -590.168     384.669
  O       -5.389    -595.614     386.573
  O       -5.381    -594.955     389.062
  H       -7.939    -591.810     382.993
  H       -4.687    -596.208     386.899
  H       -7.032    -586.069     383.091
  H       -5.037    -591.965     384.749
  H       -8.156    -589.733     385.213
  H       -7.186    -592.659     384.983
  H       -9.237    -593.194     386.228
  H       -8.813    -591.072     388.007
  H       -6.779    -592.226     388.878
  H       -2.854    -586.968     381.702
  H       -2.418    -588.589     382.266
  H       -8.123    -593.329     388.662
  P      -11.291    -591.509     387.058
  C      -13.277    -591.421     385.431
  O      -12.533    -590.714     386.410
  O      -10.827    -590.463     388.195
  O      -11.541    -592.891     387.559
  H      -10.603    -589.605     387.810
  H      -14.134    -590.815     385.136
  H      -13.640    -592.371     385.842
  H      -12.652    -591.610     384.550
  H       -8.544    -597.239     389.025
  H       -7.611    -596.079     389.940
  H       -6.804    -597.375     389.090

 3  4  5  6  7  8  9  10  11  12  22  25  29  30  31  32 0
 6-311+G(2d,p)
 ****
 33  36  37 0
 6-311+G(2d,p)
 ****
 1  2  13  14  15  16  17  18  19  20  21  23  24  26 0
 3-21G
 ****
 27  28  34  35  38  39  40  41  42  43  44  45  46  47  48 0
 3-21G
 ****


