%nproc=1
%NoSave
%Mem=1900MB
#P OB98/GEN NMR

erre ene a

0 1
  C      -95.245       2.923    -142.011
  O      -94.441       4.077    -142.143
  H      -95.905       2.852    -142.880
  H      -95.859       2.990    -141.109
  H      -94.618       2.029    -141.967
  P      -93.472       4.416    -140.907
  C      -93.551       6.337    -139.144
  O      -94.240       5.603    -140.143
  C      -94.557       7.030    -138.229
  O      -95.196       8.128    -138.915
  C      -95.692       6.129    -137.757
  O      -95.311       5.268    -136.697
  C      -96.698       7.171    -137.304
  O      -96.291       7.714    -136.035
  C      -96.563       8.224    -138.428
  N      -97.514       8.022    -139.522
  C      -98.872       8.082    -139.191
  O      -99.227       8.284    -138.032
  N      -99.804       7.877    -140.181
  C      -99.415       7.644    -141.397
  N     -100.380       7.435    -142.333
  C      -97.995       7.590    -141.791
  C      -97.111       7.783    -140.817
  O      -92.242       5.181    -141.589
  O      -93.079       3.262    -140.048
  H      -96.917       8.429    -135.820
  H      -91.645       5.543    -140.891
  H      -97.720       7.381    -142.815
  H      -96.048       7.755    -141.032
  H      -96.697       9.238    -138.032
  H      -97.704       6.768    -137.175
  H      -96.127       5.559    -138.585
  H      -94.005       7.453    -137.379
  H     -101.341       7.417    -142.022
  H      -92.915       7.079    -139.636
  H     -100.174       7.071    -143.256
  H      -92.923       5.666    -138.550
  P      -95.992       3.814    -136.636
  C      -97.101       2.892    -134.476
  O      -97.125       3.875    -135.503
  O      -94.853       2.911    -135.968
  O      -96.436       3.270    -137.957
  H      -94.823       2.023    -136.373
  H      -97.913       3.063    -133.800
  H      -96.175       2.955    -133.944
  H      -97.197       1.919    -134.911

 6  7  8  9  10  11  12  13  14  15  16  26  30  31  32  33  35 0
 6-311+G(2d,p)
 ****
 37  38 0
 6-311+G(2d,p)
 ****
 1  2  3  4  5  17  18  19  20  21  22  23  24  25 0
 3-21G
 ****
 27  28  29  34  36  39  40  41  42  43  44  45  46 0
 3-21G
 ****


