%nproc=1
%NoSave
%Mem=1900MB
#P OB98/GEN NMR

erre ene a

0 1
  C     -897.860     748.548    1101.464
  O     -897.650     748.333    1100.087
  H     -898.860     748.944    1101.611
  H     -897.120     749.259    1101.852
  H     -897.770     747.581    1102.006
  P     -896.200     747.840    1099.624
  C     -896.680     745.288    1099.363
  O     -896.410     746.533    1098.712
  C     -897.450     744.372    1098.407
  O     -898.720     745.007    1098.032
  C     -896.750     744.091    1097.104
  O     -895.740     743.115    1097.226
  C     -897.900     743.627    1096.231
  O     -898.180     742.226    1096.404
  C     -899.080     744.503    1096.726
  N     -899.390     745.583    1095.796
  C     -899.540     745.185    1094.454
  O     -899.430     744.030    1094.072
  N     -899.790     746.218    1093.596
  C     -899.860     747.548    1093.877
  O     -900.000     748.411    1093.026
  C     -899.640     747.888    1095.302
  C     -899.440     746.899    1096.186
  O     -895.570     747.245    1100.995
  O     -895.330     748.888    1099.018
  H     -894.900     747.861    1101.325
  H     -897.390     741.754    1096.088
  H     -899.910     745.969    1092.609
  H     -899.700     748.940    1095.568
  H     -899.280     747.123    1097.229
  H     -899.980     743.869    1096.860
  H     -897.660     743.769    1095.169
  H     -896.330     745.025    1096.682
  H     -897.710     743.445    1098.933
  H     -897.310     745.483    1100.264
  H     -895.740     744.820    1099.684
  P     -894.750     742.877    1095.986
  C     -892.610     744.368    1096.451
  O     -893.250     743.105    1096.543
  O     -895.030     744.193    1095.096
  O     -894.980     741.581    1095.279
  H     -895.340     744.939    1095.657
  H     -891.630     744.303    1096.875
  H     -893.182     745.098    1096.985
  H     -892.535     744.656    1095.423

 6  7  8  9  10  11  12  13  14  15  16  27  31  32  33  34  35 0
 6-311+G(2d,p)
 ****
 36  37 0
 6-311+G(2d,p)
 ****
 1  2  3  4  5  17  18  19  20  21  22  23  24  25 0
 3-21G
 ****
 26  28  29  30  38  39  40  41  42  43  44  45 0
 3-21G
 ****


