%nproc=1
%NoSave
%Mem=1900MB
#P OB98/GEN NMR

erre ene a

0 1
  C     -149.304    -525.431    -546.637
  O     -147.933    -525.132    -546.472
  H     -149.523    -526.373    -546.130
  H     -149.534    -525.542    -547.700
  H     -149.926    -524.643    -546.201
  P     -147.437    -523.680    -546.934
  C     -147.128    -522.586    -544.594
  O     -146.501    -523.120    -545.753
  C     -146.302    -521.422    -544.047
  O     -147.122    -520.681    -543.097
  C     -145.024    -521.852    -543.314
  O     -144.004    -520.881    -543.576
  C     -145.425    -521.771    -541.852
  O     -144.326    -521.611    -540.962
  C     -146.363    -520.558    -541.875
  N     -147.243    -520.506    -540.710
  C     -146.657    -520.243    -539.476
  O     -145.470    -519.967    -539.307
  N     -147.503    -520.308    -538.396
  C     -148.828    -520.618    -538.429
  O     -149.526    -520.676    -537.423
  C     -149.389    -520.895    -539.759
  C     -148.581    -520.827    -540.822
  O     -148.761    -522.791    -546.813
  O     -146.824    -523.612    -548.294
  H     -149.260    -522.806    -547.649
  H     -143.752    -522.395    -541.064
  H     -147.092    -520.121    -537.496
  H     -150.436    -521.158    -539.822
  H     -148.958    -521.049    -541.817
  H     -145.786    -519.631    -541.940
  H     -145.966    -522.678    -541.563
  H     -144.667    -522.850    -543.585
  H     -146.071    -520.736    -544.870
  H     -147.197    -523.363    -543.828
  H     -148.139    -522.248    -544.853
  P     -142.700    -521.381    -544.367
  C     -143.580    -521.721    -546.813
  O     -142.901    -520.892    -545.881
  O     -142.957    -522.961    -544.423
  O     -141.423    -520.969    -543.714
  H     -143.899    -523.189    -544.521
  H     -143.617    -521.232    -547.764
  H     -144.576    -521.905    -546.467
  H     -143.059    -522.650    -546.910

 6  7  8  9  10  11  12  13  14  15  16  27  31  32  33  34  35 0
 6-311+G(2d,p)
 ****
 36  37 0
 6-311+G(2d,p)
 ****
 1  2  3  4  5  17  18  19  20  21  22  23  24  25 0
 3-21G
 ****
 26  28  29  30  38  39  40  41  42  43  44  45 0
 3-21G
 ****


