%nproc=1
%NoSave
%Mem=1900MB
#P OB98/GEN NMR

erre ene a

0 1
  C      424.050     773.485    -205.749
  O      423.920     773.603    -207.145
  P      425.108     774.187    -208.045
  C      423.527     775.819    -209.394
  O      424.491     774.773    -209.393
  C      423.358     776.352    -210.822
  O      424.486     777.204    -211.168
  C      423.299     775.219    -211.822
  O      421.926     774.877    -212.103
  C      424.021     775.798    -213.020
  O      423.134     776.662    -213.785
  C      425.134     776.645    -212.340
  N      426.365     775.933    -211.901
  C      426.986     775.057    -212.775
  O      426.617     774.845    -213.926
  N      428.100     774.410    -212.257
  C      428.618     774.600    -211.004
  O      429.428     773.841    -210.492
  C      428.064     775.723    -210.251
  C      426.968     776.316    -210.703
  O      425.884     772.876    -208.525
  O      426.014     775.149    -207.354
  H      422.312     776.176    -213.920
  H      426.662     772.709    -207.982
  H      428.478     773.674    -212.842
  H      428.543     775.987    -209.321
  H      426.517     777.129    -210.151
  H      425.439     777.474    -212.989
  H      424.338     775.010    -213.699
  H      423.854     774.351    -211.465
  H      422.448     776.972    -210.853
  H      423.878     776.617    -208.718
  H      422.587     775.465    -208.993
  P      421.501     773.331    -212.098
  C      420.440     773.461    -214.434
  O      420.214     773.261    -213.053
  O      421.334     772.715    -210.740
  O      422.663     772.623    -212.930
  H      423.313     772.222    -212.322
  H      419.527     773.226    -214.984
  H      421.269     772.829    -214.770
  H      420.686     774.519    -214.608
  H      423.150     773.076    -205.340
  H      424.228     774.451    -205.324
  H      424.872     772.839    -205.521

 3  4  5  6  7  8  9  10  11  12  13  23  28  29  30  31  32 0
 6-311+G(2d,p)
 ****
 33  34 0
 6-311+G(2d,p)
 ****
 1  2  14  15  16  17  18  19  20  21  22  24  25  26  27 0
 3-21G
 ****
 35  36  37  38  39  40  41  42  43  44  45 0
 3-21G
 ****


