%nproc=1
%NoSave
%Mem=1900MB
#P OB98/GEN NMR

erre ene a

0 1
  C      341.284    -891.170     102.784
  O      340.052    -891.090     103.484
  P      339.167    -892.390     103.742
  C      337.944    -892.100     101.493
  O      337.800    -892.240     102.893
  C      337.357    -893.320     100.765
  O      338.032    -894.520     101.172
  C      335.895    -893.560     101.064
  O      335.046    -892.620     100.418
  C      335.720    -895.000     100.590
  O      335.564    -895.050      99.164
  C      337.082    -895.600     101.007
  N      336.981    -896.450     102.192
  C      336.431    -897.720     102.007
  O      335.974    -898.040     100.922
  N      336.401    -898.580     103.082
  C      336.765    -898.150     104.253
  N      336.757    -899.050     105.271
  C      337.206    -896.770     104.508
  C      337.312    -895.980     103.440
  O      338.984    -892.780     105.155
  O      339.942    -893.550     102.927
  H      340.057    -894.320     103.511
  H      335.182    -895.940      98.955
  H      337.415    -896.440     105.517
  H      337.649    -894.940     103.547
  H      337.494    -896.220     100.181
  H      334.855    -895.500     101.039
  H      335.720    -893.520     102.151
  H      337.524    -893.170      99.692
  H      336.483    -900.000     105.054
  H      339.011    -892.020     101.244
  H      337.318    -898.920     106.108
  H      337.443    -891.180     101.172
  P      333.996    -891.840     101.342
  C      332.338    -893.810     101.715
  O      332.557    -892.550     101.142
  O      333.834    -890.430     100.621
  O      334.409    -891.680     102.774
  H      333.726    -889.720     101.294
  H      331.259    -893.970     101.791
  H      332.753    -893.860     102.737
  H      332.789    -894.570     101.093
  H      341.720    -890.195     102.717
  H      341.111    -891.552     101.799
  H      341.950    -891.824     103.308

 3  4  5  6  7  8  9  10  11  12  13  24  27  28  29  30  32 0
 6-311+G(2d,p)
 ****
 34  35 0
 6-311+G(2d,p)
 ****
 1  2  14  15  16  17  18  19  20  21  22  23  25  26 0
 3-21G
 ****
 31  33  36  37  38  39  40  41  42  43  44  45  46 0
 3-21G
 ****


