%nproc=1
%NoSave
%Mem=1900MB
#P OB98/GEN NMR

erre ene a

0 1
  C       44.391     123.987      52.985
  O       43.904     122.663      53.087
  H       44.545     124.222      51.928
  H       45.348     124.076      53.508
  H       43.669     124.693      53.402
  P       43.435     122.180      54.548
  C       41.676     124.130      54.640
  O       41.939     122.739      54.723
  C       40.181     124.380      54.435
  O       39.788     123.826      53.155
  C       39.293     123.751      55.511
  O       38.196     124.631      55.771
  C       38.789     122.476      54.853
  O       37.568     122.024      55.433
  C       38.702     122.904      53.380
  N       38.771     121.763      52.465
  C       37.554     121.205      52.061
  O       36.489     121.657      52.488
  N       37.570     120.121      51.220
  C       38.703     119.592      50.864
  N       38.648     118.507      50.043
  C       40.011     120.120      51.308
  C       39.972     121.197      52.089
  O       44.311     123.124      55.498
  O       43.607     120.716      54.794
  H       36.961     122.796      55.512
  H       44.370     124.042      55.187
  H       40.928     119.637      50.998
  H       40.886     121.653      52.454
  H       37.764     123.442      53.189
  H       39.529     121.675      54.970
  H       39.823     123.538      56.438
  H       40.019     125.464      54.371
  H       37.729     118.168      49.778
  H       42.237     124.575      53.812
  H       39.462     117.985      49.751
  H       42.015     124.594      55.571
  P       38.172     125.468      57.139
  C       39.540     127.653      57.096
  O       38.299     127.032      56.798
  O       39.082     124.976      58.218
  O       36.634     125.345      57.604
  H       36.619     125.243      58.576
  H       39.496     128.687      56.824
  H       40.321     127.172      56.545
  H       39.739     127.568      58.144

 6  7  8  9  10  11  12  13  14  15  16  26  30  31  32  33  35 0
 6-311+G(2d,p)
 ****
 37  38 0
 6-311+G(2d,p)
 ****
 1  2  3  4  5  17  18  19  20  21  22  23  24  25 0
 3-21G
 ****
 27  28  29  34  36  39  40  41  42  43  44  45  46 0
 3-21G
 ****


