%nproc=1
%NoSave
%Mem=1900MB
#P OB98/GEN NMR

erre ene a

0 1
  C      151.583     -27.948    -154.336
  O      150.826     -28.789    -153.455
  P      150.612     -30.361    -153.705
  C      148.811     -30.090    -155.531
  O      150.099     -30.597    -155.208
  C      147.924     -31.157    -156.185
  O      148.543     -31.638    -157.418
  C      147.653     -32.389    -155.298
  O      146.293     -32.772    -155.536
  C      148.628     -33.410    -155.869
  O      148.315     -34.747    -155.531
  C      148.503     -33.081    -157.362
  N      149.531     -33.661    -158.220
  C      149.642     -35.056    -158.254
  O      148.939     -35.774    -157.545
  N      150.577     -35.620    -159.092
  C      151.339     -34.866    -159.821
  N      152.233     -35.489    -160.634
  C      151.269     -33.394    -159.803
  C      150.355     -32.865    -158.991
  O      149.751     -31.018    -152.674
  O      152.082     -30.998    -153.697
  H      152.045     -31.885    -153.289
  H      149.043     -35.315    -155.840
  H      151.917     -32.801    -160.432
  H      150.220     -31.789    -158.941
  H      147.513     -33.389    -157.720
  H      149.629     -33.190    -155.484
  H      147.784     -32.198    -154.229
  H      146.978     -30.682    -156.475
  H      152.245     -36.503    -160.627
  H      148.931     -29.257    -156.231
  H      152.868     -35.000    -161.249
  H      148.338     -29.706    -154.620
  P      145.196     -32.556    -154.383
  C      145.107     -34.992    -153.456
  O      145.476     -33.645    -153.239
  O      143.872     -33.146    -155.078
  O      144.964     -31.147    -153.944
  H      143.089     -32.728    -154.674
  H      145.926     -35.638    -153.122
  H      144.901     -35.202    -154.508
  H      144.215     -35.217    -152.864
  H      151.583     -26.946    -153.961
  H      151.142     -27.964    -155.311
  H      152.589     -28.307    -154.394

 3  4  5  6  7  8  9  10  11  12  13  24  27  28  29  30  32 0
 6-311+G(2d,p)
 ****
 34  35 0
 6-311+G(2d,p)
 ****
 1  2  14  15  16  17  18  19  20  21  22  23  25  26 0
 3-21G
 ****
 31  33  36  37  38  39  40  41  42  43  44  45  46 0
 3-21G
 ****


