%nproc=1
%NoSave
%Mem=1900MB
#P OB98/GEN NMR

erre ene a

0 1
  C     -624.647     561.701     544.473
  O     -624.169     561.804     545.805
  P     -622.969     562.815     546.162
  C     -621.975     563.699     548.367
  O     -623.105     563.098     547.738
  C     -622.364     564.221     549.772
  O     -623.048     565.485     549.664
  C     -623.289     563.298     550.551
  O     -622.579     562.197     551.079
  C     -623.847     564.254     551.584
  O     -622.958     564.397     552.683
  C     -623.953     565.577     550.780
  N     -625.325     565.866     550.351
  C     -626.097     566.626     551.238
  O     -625.618     566.995     552.320
  N     -627.393     566.928     550.893
  C     -627.882     566.469     549.789
  N     -629.174     566.789     549.502
  C     -627.124     565.635     548.846
  C     -625.869     565.375     549.192
  O     -622.878     564.022     545.293
  O     -621.690     561.867     546.077
  H     -622.796     563.492     553.040
  H     -621.436     561.663     545.139
  H     -627.568     565.280     547.932
  H     -625.213     564.753     548.560
  H     -623.615     566.421     551.394
  H     -624.830     563.916     551.980
  H     -624.113     562.946     549.893
  H     -621.426     564.372     550.335
  H     -629.680     567.340     550.189
  H     -621.650     564.539     547.750
  H     -629.672     566.453     548.690
  H     -621.164     562.962     548.436
  P     -623.369     560.861     551.496
  C     -622.720     558.523     552.366
  O     -622.286     559.703     551.669
  O     -624.544     560.518     550.641
  O     -623.816     561.149     553.008
  H     -624.756     560.867     553.109
  H     -622.024     557.706     552.132
  H     -623.722     558.245     552.084
  H     -622.679     558.738     553.439
  H     -625.440     560.984     544.433
  H     -623.850     561.388     543.831
  H     -625.011     562.654     544.150

 3  4  5  6  7  8  9  10  11  12  13  23  27  28  29  30  32 0
 6-311+G(2d,p)
 ****
 34  35 0
 6-311+G(2d,p)
 ****
 1  2  14  15  16  17  18  19  20  21  22  24  25  26 0
 3-21G
 ****
 31  33  36  37  38  39  40  41  42  43  44  45  46 0
 3-21G
 ****


