%nproc=1
%NoSave
%Mem=1900MB
#P OB98/GEN NMR

erre ene a

0 1
  C      500.500     464.992     623.391
  O      501.392     464.260     622.548
  P      500.862     463.778     621.113
  C      501.010     466.036     619.863
  O      501.526     464.710     619.983
  C      500.494     466.285     618.433
  O      499.682     467.489     618.428
  C      501.591     466.522     617.386
  O      502.135     465.389     616.711
  C      500.829     467.339     616.337
  O      500.104     466.445     615.467
  C      499.852     468.158     617.169
  N      498.543     473.102     616.888
  C      497.861     471.968     616.594
  N      498.292     470.690     616.697
  C      499.541     470.647     617.167
  C      500.359     471.719     617.504
  C      499.813     472.997     617.341
  N      500.506     474.152     617.625
  N      501.593     471.267     617.934
  C      501.531     469.955     617.844
  N      500.307     469.525     617.396
  O      499.388     463.578     620.990
  O      501.649     462.395     620.901
  H      500.774     465.990     614.918
  H      501.050     461.756     620.455
  H      496.849     472.107     616.232
  H      502.335     469.280     618.087
  H      498.863     468.230     616.694
  H      501.501     467.917     615.694
  H      502.414     467.128     617.807
  H      499.866     465.444     618.129
  H      501.796     466.758     620.105
  H      500.063     475.033     617.436
  H      501.477     474.096     617.911
  H      500.219     466.151     620.610
  P      503.699     465.043     616.787
  C      504.440     464.416     619.207
  O      503.858     464.005     617.992
  O      504.603     466.227     616.857
  O      503.916     464.124     615.490
  H      503.480     463.260     615.537
  H      504.262     463.639     619.968
  H      504.000     465.350     619.553
  H      505.516     464.534     619.078
  H      500.997     465.240     624.306
  H      499.639     464.394     623.604
  H      500.197     465.890     622.895

 3  4  5  6  7  8  9  10  11  12  22  25  29  30  31  32 0
 6-311+G(2d,p)
 ****
 33  36  37 0
 6-311+G(2d,p)
 ****
 1  2  13  14  15  16  17  18  19  20  21  23  24  26 0
 3-21G
 ****
 27  28  34  35  38  39  40  41  42  43  44  45  46  47  48 0
 3-21G
 ****


