%nproc=1
%NoSave
%Mem=1900MB
#P OB98/GEN NMR

erre ene a

0 1
  C     -193.066     -69.108     484.390
  O     -191.983     -69.979     484.127
  H     -193.408     -68.680     483.443
  H     -192.749     -68.290     485.047
  H     -193.895     -69.653     484.848
  P     -191.297     -70.731     485.366
  C     -188.926     -70.292     484.438
  O     -189.835     -70.089     485.513
  C     -188.123     -69.021     484.181
  O     -188.979     -67.980     483.668
  C     -187.447     -68.449     485.430
  O     -186.243     -69.147     485.705
  C     -187.224     -67.012     484.986
  O     -186.097     -66.951     484.090
  C     -188.527     -66.717     484.226
  N     -191.555     -62.725     485.015
  C     -190.527     -62.895     484.109
  N     -190.241     -61.827     483.329
  N     -189.833     -63.997     483.991
  C     -190.193     -64.950     484.882
  C     -191.182     -64.893     485.841
  C     -191.979     -63.694     485.927
  O     -192.912     -63.509     486.704
  N     -191.202     -66.031     486.608
  C     -190.255     -66.788     486.087
  N     -189.598     -66.172     485.046
  O     -191.298     -72.230     485.315
  O     -192.079     -70.171     486.645
  H     -186.228     -66.166     483.527
  H     -192.833     -70.745     486.876
  H     -192.043     -61.844     485.072
  H     -190.002     -67.787     486.425
  H     -188.375     -66.022     483.395
  H     -187.020     -66.337     485.819
  H     -190.540     -60.894     483.572
  H     -188.123     -68.450     486.290
  H     -189.456     -61.915     482.691
  H     -187.381     -69.242     483.403
  H     -189.515     -70.560     483.553
  H     -188.242     -71.120     484.668
  P     -186.100     -70.075     487.007
  C     -184.110     -68.646     487.820
  O     -185.406     -69.141     488.112
  O     -185.416     -71.381     486.777
  O     -187.594     -70.221     487.560
  H     -188.092     -70.980     487.170
  H     -183.767     -68.042     488.634
  H     -184.146     -68.055     486.929
  H     -183.439     -69.467     487.677

 6  7  8  9  10  11  12  13  14  15  26  29  33  34 0
 6-311+G(2d,p)
 ****
 36  38  39  40  41 0
 6-311+G(2d,p)
 ****
 1  2  3  4  5  16  17  18  19  20  21  22  23  24  25 0
 3-21G
 ****
 27  28  30  31  32  35  37  42  43  44  45  46  47 0
 3-21G
 ****
 48  49 0
 3-21G
 ****


