%nproc=1
%NoSave
%Mem=1900MB
#P OB98/GEN NMR

erre ene a

0 1
  C      927.139    -426.397     219.846
  O      927.740    -427.075     220.929
  H      927.923    -426.065     219.160
  H      926.600    -425.522     220.216
  H      926.457    -427.057     219.301
  P      926.816    -427.916     221.931
  C      925.945    -430.272     221.330
  O      927.088    -429.465     221.603
  C      926.165    -431.713     221.811
  O      927.233    -432.310     221.020
  C      926.570    -431.823     223.285
  O      926.061    -433.070     223.781
  C      928.082    -431.875     223.189
  O      928.670    -432.379     224.375
  C      928.261    -432.740     221.939
  N      929.602    -432.630     221.363
  C      930.656    -433.065     222.154
  O      930.510    -433.486     223.300
  N      931.897    -432.944     221.606
  C      932.196    -432.396     220.390
  O      933.340    -432.282     219.965
  C      931.043    -431.912     219.606
  C      929.813    -432.054     220.124
  O      925.375    -427.529     221.964
  O      927.517    -427.739     223.362
  H      928.361    -433.294     224.542
  H      926.841    -427.778     224.070
  H      932.690    -433.263     222.167
  H      931.235    -431.461     218.647
  H      928.944    -431.712     219.570
  H      928.081    -433.794     222.162
  H      928.498    -430.874     223.022
  H      926.213    -430.994     223.900
  H      925.254    -432.290     221.604
  H      925.768    -430.258     220.258
  H      925.066    -429.837     221.838
  P      924.524    -433.257     224.214
  C      922.494    -432.889     222.665
  O      923.668    -433.659     222.913
  O      923.970    -432.104     224.981
  O      924.507    -434.590     225.098
  H      923.776    -434.548     225.741
  H      922.013    -433.248     221.779
  H      922.762    -431.862     222.534
  H      921.826    -432.980     223.496

 6  7  8  9  10  11  12  13  14  15  16  26  31  32  33  34  35 0
 6-311+G(2d,p)
 ****
 36  37 0
 6-311+G(2d,p)
 ****
 1  2  3  4  5  17  18  19  20  21  22  23  24  25 0
 3-21G
 ****
 27  28  29  30  38  39  40  41  42  43  44  45 0
 3-21G
 ****


