%nproc=1
%NoSave
%Mem=1900MB
#P OB98/GEN NMR

erre ene a

0 1
  C     -111.873      82.920     -98.813
  O     -111.680      84.320     -98.766
  H     -112.148      82.636     -99.833
  H     -112.685      82.634     -98.140
  H     -110.958      82.389     -98.538
  P     -111.012      84.970     -97.463
  C     -110.190      86.973     -98.869
  O     -110.925      86.551     -97.726
  C     -110.842      88.204     -99.508
  O     -111.910      87.752    -100.399
  C     -111.472      89.180     -98.493
  O     -111.351      90.502     -99.039
  C     -112.918      88.715     -98.499
  O     -113.771      89.651     -97.895
  C     -113.101      88.460    -100.000
  N     -114.304      87.700    -100.319
  C     -115.528      88.260     -99.966
  O     -115.650      89.360     -99.424
  N     -116.633      87.502    -100.248
  C     -116.632      86.264    -100.828
  O     -117.653      85.637    -101.077
  C     -115.304      85.713    -101.151
  C     -114.218      86.443    -100.886
  O     -109.742      84.337     -97.001
  O     -112.163      84.857     -96.352
  H     -112.003      84.071     -95.796
  H     -113.621      89.678     -96.924
  H     -117.529      87.892     -99.999
  H     -115.268      84.725    -101.591
  H     -113.225      86.068    -101.110
  H     -113.117      89.405    -100.554
  H     -113.018      87.783     -97.936
  H     -110.993      89.142     -97.510
  H     -110.100      88.712    -100.136
  H     -110.171      86.144     -99.586
  H     -109.162      87.208     -98.567
  P     -110.226      91.551     -98.573
  C     -109.567      92.321    -100.944
  O     -110.085      92.708     -99.677
  O     -108.923      90.909     -98.213
  O     -110.847      92.308     -97.303
  H     -110.136      92.499     -96.662
  H     -109.522      93.175    -101.587
  H     -110.205      91.580    -101.379
  H     -108.584      91.917    -100.819

 6  7  8  9  10  11  12  13  14  15  16  27  31  32  33  34  35 0
 6-311+G(2d,p)
 ****
 36  37 0
 6-311+G(2d,p)
 ****
 1  2  3  4  5  17  18  19  20  21  22  23  24  25 0
 3-21G
 ****
 26  28  29  30  38  39  40  41  42  43  44  45 0
 3-21G
 ****


