%nproc=1
%NoSave
%Mem=1900MB
#P OB98/GEN NMR

erre ene a

0 1
  C      116.777     194.641    -167.945
  O      117.092     194.040    -169.185
  H      115.774     194.339    -167.635
  H      117.494     194.295    -167.194
  H      116.835     195.730    -168.013
  P      116.366     194.627    -170.489
  C      117.884     196.480    -171.485
  O      117.536     195.104    -171.482
  C      118.779     196.802    -172.681
  O      118.752     198.240    -172.905
  C      120.247     196.381    -172.504
  O      120.730     195.887    -173.757
  C      120.947     197.690    -172.187
  O      122.326     197.673    -172.536
  C      120.119     198.678    -173.002
  N      122.081     203.245    -174.070
  C      121.825     202.170    -174.844
  N      121.247     201.005    -174.488
  C      120.860     201.040    -173.201
  C      121.044     202.065    -172.291
  C      121.706     203.211    -172.769
  N      122.031     204.284    -171.972
  N      120.558     201.702    -171.050
  C      120.114     200.469    -171.205
  N      120.277     200.027    -172.487
  O      115.748     196.003    -169.948
  O      115.326     193.748    -171.097
  H      122.417     197.346    -173.452
  H      114.864     195.838    -169.571
  H      122.136     202.250    -175.882
  H      119.698     199.849    -170.423
  H      120.403     198.693    -174.062
  H      120.865     197.898    -171.113
  H      120.398     195.626    -171.725
  H      118.348     196.332    -173.573
  H      118.428     196.714    -170.563
  H      122.601     205.012    -172.377
  H      121.858     204.226    -170.978
  H      116.972     197.085    -171.518
  P      120.931     194.303    -173.897
  C      118.471     193.481    -174.115
  O      119.719     193.710    -174.760
  O      120.633     193.763    -172.420
  O      122.294     193.905    -174.364
  H      121.179     192.979    -172.230
  H      117.771     193.087    -174.822
  H      118.099     194.403    -173.721
  H      118.605     192.781    -173.317

 6  7  8  9  10  11  12  13  14  15  25  28  32  33  34  35 0
 6-311+G(2d,p)
 ****
 36  39  40 0
 6-311+G(2d,p)
 ****
 1  2  3  4  5  16  17  18  19  20  21  22  23  24 0
 3-21G
 ****
 26  27  29  30  31  37  38  41  42  43  44  45  46  47 0
 3-21G
 ****
 48 0
 3-21G
 ****


