%nproc=1
%NoSave
%Mem=1900MB
#P OB98/GEN NMR

erre ene a

0 1
  C      117.990      62.749      65.723
  O      116.616      62.738      66.037
  P      115.684      61.517      65.579
  C      114.276      62.457      63.640
  O      115.432      61.710      64.005
  C      113.638      61.859      62.390
  O      114.544      61.925      61.258
  C      113.299      60.380      62.511
  O      112.295      60.018      63.432
  C      113.072      60.007      61.055
  O      111.764      60.376      60.621
  C      114.143      60.874      60.345
  N      115.284      60.075      59.901
  C      114.986      58.988      59.089
  O      113.844      58.686      58.745
  N      116.052      58.223      58.700
  C      117.351      58.408      59.075
  O      118.252      57.657      58.725
  C      117.602      59.564      59.947
  C      116.575      60.335      60.316
  O      114.444      61.326      66.386
  O      116.680      60.262      65.610
  H      111.724      60.233      59.655
  H      117.451      60.341      65.021
  H      115.857      57.421      58.122
  H      118.624      59.747      60.252
  H      116.735      61.193      60.961
  H      113.711      61.369      59.467
  H      113.176      58.930      60.891
  H      114.203      59.850      62.839
  H      112.759      62.456      62.133
  H      114.572      63.490      63.430
  H      113.572      62.473      64.479
  P      112.386      58.724      64.373
  C      110.793      57.024      63.237
  O      112.126      57.425      63.471
  O      111.684      58.801      65.688
  O      113.969      58.630      64.634
  H      114.122      58.246      65.517
  H      110.804      56.104      62.646
  H      110.256      57.793      62.675
  H      110.281      56.825      64.182
  H      118.437      63.640      66.111
  H      118.113      62.722      64.660
  H      118.462      61.893      66.159

 3  4  5  6  7  8  9  10  11  12  13  23  28  29  30  31  32 0
 6-311+G(2d,p)
 ****
 33  34 0
 6-311+G(2d,p)
 ****
 1  2  14  15  16  17  18  19  20  21  22  24  25  26  27 0
 3-21G
 ****
 35  36  37  38  39  40  41  42  43  44  45 0
 3-21G
 ****


