%nproc=1
%NoSave
%Mem=1900MB
#P OB98/GEN NMR

erre ene a

0 1
  C     -693.525     480.506    -894.410
  O     -694.361     480.665    -895.530
  P     -694.906     479.377    -896.340
  C     -697.358     480.162    -896.100
  O     -696.407     479.117    -895.820
  C     -698.352     479.667    -897.170
  O     -698.986     478.430    -896.750
  C     -699.510     480.622    -897.410
  O     -699.199     481.871    -897.990
  C     -700.470     479.724    -898.170
  O     -700.126     479.631    -899.560
  C     -700.259     478.359    -897.460
  N     -701.349     478.025    -896.560
  C     -702.362     477.227    -897.110
  O     -702.351     476.815    -898.260
  N     -703.416     476.941    -896.280
  C     -703.563     477.408    -895.000
  O     -704.559     477.135    -894.320
  C     -702.494     478.251    -894.480
  C     -701.448     478.522    -895.270
  O     -694.013     478.185    -896.280
  O     -695.150     479.952    -897.810
  H     -700.462     480.418    -900.000
  H     -695.789     480.682    -897.870
  H     -704.163     476.384    -896.650
  H     -702.570     478.624    -893.460
  H     -700.633     479.149    -894.910
  H     -700.157     477.556    -898.200
  H     -701.509     480.101    -898.130
  H     -699.973     480.844    -896.440
  H     -697.795     479.450    -898.100
  H     -696.829     481.034    -896.480
  H     -697.880     480.442    -895.180
  P     -700.168     483.157    -897.870
  C     -699.360     483.725    -895.450
  O     -700.444     483.419    -896.300
  O     -701.333     483.227    -898.800
  O     -699.139     484.361    -898.220
  H     -699.634     485.084    -898.640
  H     -699.724     483.819    -894.420
  H     -698.882     484.661    -895.760
  H     -698.624     482.902    -895.480
  H     -693.273     481.467    -894.014
  H     -692.631     479.995    -894.702
  H     -694.035     479.935    -893.662

 3  4  5  6  7  8  9  10  11  12  13  23  28  29  30  31  32 0
 6-311+G(2d,p)
 ****
 33  34 0
 6-311+G(2d,p)
 ****
 1  2  14  15  16  17  18  19  20  21  22  24  25  26  27 0
 3-21G
 ****
 35  36  37  38  39  40  41  42  43  44  45 0
 3-21G
 ****


