%nproc=1
%NoSave
%Mem=1900MB
#P OB98/GEN NMR

erre ene a

0 1
  C     -117.006      88.319    -450.612
  O     -117.163      89.162    -451.732
  H     -116.292      87.531    -450.864
  H     -117.965      87.858    -450.365
  H     -116.629      88.869    -449.746
  P     -117.772      90.624    -451.516
  C     -120.024      91.664    -450.801
  O     -119.300      90.464    -451.043
  C     -121.534      91.433    -450.861
  O     -121.906      90.398    -449.924
  C     -122.336      92.681    -450.481
  O     -122.588      93.567    -451.558
  C     -123.632      92.074    -449.952
  O     -124.581      91.866    -451.012
  C     -123.182      90.735    -449.363
  N     -125.639      91.343    -444.920
  C     -126.091      91.601    -446.202
  N     -127.334      92.119    -446.300
  N     -125.372      91.384    -447.273
  C     -124.116      90.960    -447.009
  C     -123.551      90.689    -445.783
  C     -124.375      90.863    -444.606
  O     -124.033      90.630    -443.452
  N     -122.234      90.315    -445.903
  C     -121.983      90.446    -447.193
  N     -123.113      90.756    -447.911
  O     -117.933      91.186    -453.011
  O     -116.938      91.555    -450.689
  H     -124.761      92.729    -451.430
  H     -117.814      92.153    -453.011
  H     -126.245      91.504    -444.138
  H     -121.018      90.282    -447.658
  H     -123.874      89.925    -449.635
  H     -124.109      92.744    -449.230
  H     -127.893      92.384    -445.508
  H     -121.851      93.216    -449.660
  H     -127.628      92.498    -447.204
  H     -121.806      91.072    -451.862
  H     -119.724      92.372    -451.576
  H     -119.742      92.094    -449.836
  P     -122.923      95.109    -451.291
  C     -124.857      96.421    -450.097
  O     -124.359      95.204    -450.606
  O     -123.176      95.682    -452.763
  O     -121.868      95.878    -450.564
  H     -122.381      96.137    -453.098
  H     -125.831      96.263    -449.683
  H     -124.918      97.140    -450.887
  H     -124.200      96.784    -449.334

 6  7  8  9  10  11  12  13  14  15  26  29  33  34 0
 6-311+G(2d,p)
 ****
 36  38  39  40  41 0
 6-311+G(2d,p)
 ****
 1  2  3  4  5  16  17  18  19  20  21  22  23  24  25 0
 3-21G
 ****
 27  28  30  31  32  35  37  42  43  44  45  46  47 0
 3-21G
 ****
 48  49 0
 3-21G
 ****


