%nproc=1
%NoSave
%Mem=1900MB
#P OB98/GEN NMR

erre ene a

0 1
  C      196.963       4.931     545.150
  O      196.689       3.798     545.957
  P      195.683       2.652     545.456
  C      193.219       2.604     544.725
  O      194.316       3.420     545.122
  C      191.977       2.966     545.533
  O      191.790       4.403     545.466
  C      190.660       2.369     545.041
  O      190.402       1.053     545.499
  C      189.660       3.329     545.673
  O      189.482       2.998     547.064
  C      190.371       4.676     545.532
  N      187.811       8.749     543.783
  C      188.071       8.314     545.041
  N      188.744       7.209     545.420
  C      189.208       6.543     544.349
  C      189.029       6.866     543.016
  C      188.291       8.029     542.744
  N      188.045       8.485     541.464
  N      189.639       5.928     542.201
  C      190.183       5.068     543.035
  N      189.959       5.402     544.342
  O      195.565       1.489     546.380
  O      196.231       2.244     544.012
  H      189.286       2.043     547.106
  H      195.854       1.383     543.742
  H      187.683       8.935     545.840
  H      190.744       4.194     542.738
  H      190.206       5.334     546.397
  H      188.672       3.280     545.203
  H      190.576       2.433     543.949
  H      192.157       2.702     546.581
  H      193.483       1.558     544.919
  H      187.625       9.394     541.370
  H      188.541       8.039     540.699
  H      193.041       2.723     543.654
  P      189.819       0.005     544.427
  C      187.490      -0.268     543.267
  O      188.285       0.418     544.208
  O      190.057      -1.427     544.767
  O      190.526       0.462     543.065
  H      190.245       1.330     542.726
  H      186.450       0.050     543.386
  H      187.540      -1.352     543.426
  H      187.818      -0.028     542.250
  H      197.652       5.573     545.658
  H      196.054       5.463     544.961
  H      197.390       4.613     544.222

 3  4  5  6  7  8  9  10  11  12  22  25  29  30  31  32 0
 6-311+G(2d,p)
 ****
 33  36  37 0
 6-311+G(2d,p)
 ****
 1  2  13  14  15  16  17  18  19  20  21  23  24  26 0
 3-21G
 ****
 27  28  34  35  38  39  40  41  42  43  44  45  46  47  48 0
 3-21G
 ****


