%nproc=1
%NoSave
%Mem=1900MB
#P OB98/GEN NMR

erre ene a

0 1
  C     1314.016     261.150     580.799
  O     1313.446     260.784     582.032
  H     1315.059     260.830     580.784
  H     1313.980     262.232     580.667
  H     1313.499     260.660     579.963
  P     1311.858     260.976     582.171
  C     1311.451     258.430     581.828
  O     1311.273     259.561     582.665
  C     1311.931     257.224     582.653
  O     1313.227     257.512     583.243
  C     1311.012     256.861     583.808
  O     1309.931     256.056     583.389
  C     1311.977     256.072     584.677
  O     1312.151     254.740     584.127
  C     1313.265     256.876     584.554
  N     1315.003     257.905     589.201
  C     1315.010     256.715     588.495
  N     1315.531     255.643     589.124
  N     1314.524     256.595     587.278
  C     1314.025     257.742     586.784
  C     1313.984     258.988     587.386
  C     1314.514     259.110     588.713
  O     1314.562     260.136     589.373
  N     1313.401     259.912     586.568
  C     1313.089     259.234     585.468
  N     1313.430     257.905     585.565
  O     1311.355     261.071     580.646
  O     1311.417     262.161     582.961
  H     1311.333     254.245     584.316
  H     1310.617     261.699     580.604
  H     1315.383     257.946     590.128
  H     1312.606     259.662     584.602
  H     1314.160     256.246     584.575
  H     1311.614     255.932     585.700
  H     1315.876     255.657     590.084
  H     1310.673     257.760     584.364
  H     1315.561     254.759     588.615
  H     1312.055     256.383     581.969
  H     1312.194     258.662     581.061
  H     1310.506     258.197     581.329
  P     1308.825     255.636     584.496
  C     1307.116     257.279     583.430
  O     1307.389     255.931     583.814
  O     1308.980     256.793     585.591
  O     1309.007     254.275     585.071
  H     1308.654     256.462     586.461
  H     1306.140     257.335     582.995
  H     1307.844     257.601     582.715
  H     1307.159     257.911     584.292

 6  7  8  9  10  11  12  13  14  15  26  29  33  34 0
 6-311+G(2d,p)
 ****
 36  38  39  40  41 0
 6-311+G(2d,p)
 ****
 1  2  3  4  5  16  17  18  19  20  21  22  23  24  25 0
 3-21G
 ****
 27  28  30  31  32  35  37  42  43  44  45  46  47 0
 3-21G
 ****
 48  49 0
 3-21G
 ****


