%nproc=1
%NoSave
%Mem=1900MB
#P OB98/GEN NMR

erre ene a

0 1
  C       30.930      74.010      42.587
  O       31.935      74.829      43.187
  P       32.161      74.750      44.771
  C       31.324      77.125      45.316
  O       31.112      75.732      45.491
  C       30.880      77.904      46.562
  O       29.434      77.831      46.724
  C       31.505      77.355      47.852
  O       31.732      78.417      48.793
  C       30.407      76.470      48.408
  O       30.573      76.239      49.805
  C       29.170      77.281      48.031
  N       24.820      76.203      50.507
  C       25.791      77.112      50.750
  N       26.908      77.357      50.034
  C       26.968      76.556      48.958
  C       26.050      75.591      48.577
  C       24.933      75.418      49.411
  N       23.960      74.472      49.180
  N       26.451      74.962      47.415
  C       27.615      75.507      47.128
  N       27.954      76.496      48.010
  O       33.572      74.891      45.231
  O       31.581      73.301      45.140
  H       29.904      75.583      50.075
  H       32.175      72.875      45.788
  H       25.652      77.718      51.641
  H       28.255      75.215      46.308
  H       29.011      78.122      48.716
  H       30.417      75.500      47.897
  H       32.442      76.809      47.706
  H       31.134      78.961      46.431
  H       30.772      77.475      44.442
  H       23.259      74.343      49.894
  H       24.109      73.786      48.454
  H       32.383      77.301      45.093
  P       33.271      78.806      49.060
  C       33.604      76.593      50.411
  O       34.025      77.424      49.353
  O       33.446      79.882      50.079
  O       33.764      79.222      47.595
  H       33.556      78.579      46.897
  H       34.156      75.652      50.361
  H       32.536      76.373      50.333
  H       33.813      77.072      51.371
  H       30.911      74.184      41.531
  H       29.976      74.252      43.006
  H       31.151      72.980      42.775

 3  4  5  6  7  8  9  10  11  12  22  25  29  30  31  32 0
 6-311+G(2d,p)
 ****
 33  36  37 0
 6-311+G(2d,p)
 ****
 1  2  13  14  15  16  17  18  19  20  21  23  24  26 0
 3-21G
 ****
 27  28  34  35  38  39  40  41  42  43  44  45  46  47  48 0
 3-21G
 ****


