%nproc=1
%NoSave
%Mem=1900MB
#P OB98/GEN NMR

erre ene a

0 1
  C      845.061    -571.880    -114.810
  O      845.294    -571.040    -115.923
  H      844.362    -572.669    -115.110
  H      844.620    -571.314    -113.988
  H      845.997    -572.342    -114.487
  P      846.268    -569.788    -115.681
  C      848.230    -569.780    -114.007
  O      847.620    -570.441    -115.111
  C      849.490    -570.520    -113.568
  O      849.125    -571.850    -113.115
  C      850.518    -570.685    -114.699
  O      851.836    -570.538    -114.169
  C      850.319    -572.121    -115.155
  O      851.484    -572.665    -115.760
  C      849.900    -572.803    -113.854
  N      850.155    -577.882    -114.360
  C      851.063    -576.955    -113.978
  N      850.909    -575.629    -113.844
  C      849.645    -575.270    -114.128
  C      848.605    -576.086    -114.535
  C      848.900    -577.465    -114.655
  N      847.984    -578.400    -115.072
  N      847.464    -575.341    -114.760
  C      847.801    -574.104    -114.483
  N      849.112    -574.002    -114.108
  O      845.702    -568.671    -114.873
  O      846.680    -569.400    -117.186
  H      851.268    -573.556    -116.117
  H      846.888    -570.195    -117.705
  H      852.054    -577.348    -113.743
  H      847.152    -573.242    -114.552
  H      850.760    -573.109    -113.251
  H      849.505    -572.161    -115.891
  H      850.365    -569.978    -115.512
  H      849.934    -570.002    -112.714
  H      847.535    -569.736    -113.163
  H      848.264    -579.364    -115.118
  H      847.027    -578.114    -115.269
  H      848.468    -568.757    -114.313
  P      852.789    -569.408    -114.794
  C      852.125    -566.922    -115.014
  O      852.412    -567.998    -114.121
  O      852.897    -569.393    -116.274
  O      854.197    -569.740    -114.116
  H      854.905    -569.581    -114.765
  H      851.890    -566.044    -114.450
  H      851.291    -567.183    -115.631
  H      852.979    -566.732    -115.630

 6  7  8  9  10  11  12  13  14  15  25  28  32  33  34  35 0
 6-311+G(2d,p)
 ****
 36  39  40 0
 6-311+G(2d,p)
 ****
 1  2  3  4  5  16  17  18  19  20  21  22  23  24 0
 3-21G
 ****
 26  27  29  30  31  37  38  41  42  43  44  45  46  47 0
 3-21G
 ****
 48 0
 3-21G
 ****


