%nproc=1
%NoSave
%Mem=1900MB
#P OB98/GEN NMR

erre ene a

0 1
  C     -899.160    -233.593     232.469
  O     -897.910    -233.944     231.862
  P     -897.020    -232.785     231.194
  C     -894.800    -233.857     231.971
  O     -895.590    -233.394     230.869
  C     -894.170    -235.215     231.675
  O     -895.060    -236.304     232.017
  C     -893.820    -235.411     230.211
  O     -892.690    -234.647     229.837
  C     -893.660    -236.917     230.137
  O     -892.350    -237.310     230.568
  C     -894.730    -237.430     231.128
  N     -895.920    -237.961     230.501
  C     -895.700    -238.921     229.528
  O     -894.540    -239.259     229.201
  N     -896.800    -239.484     228.900
  C     -897.990    -239.107     229.233
  N     -899.040    -239.707     228.579
  C     -898.250    -238.086     230.258
  C     -897.180    -237.557     230.847
  O     -897.020    -231.471     231.905
  O     -897.690    -232.651     229.725
  H     -892.160    -236.774     231.368
  H     -897.580    -231.744     229.416
  H     -899.290    -237.824     230.505
  H     -897.300    -236.796     231.614
  H     -894.310    -238.197     231.777
  H     -893.790    -237.299     229.114
  H     -894.700    -235.102     229.582
  H     -893.280    -235.306     232.279
  H     -898.820    -240.408     227.876
  H     -895.460    -233.949     232.856
  H     -900.000    -239.530     228.809
  H     -894.050    -233.105     232.205
  P     -892.910    -233.346     228.916
  C     -890.490    -232.548     229.484
  O     -891.460    -232.825     228.474
  O     -893.380    -232.238     229.977
  O     -893.910    -233.518     227.821
  H     -894.030    -231.650     229.554
  H     -889.510    -232.503     229.022
  H     -890.490    -233.335     230.246
  H     -890.720    -231.579     229.944
  H     -899.624    -234.473     232.864
  H     -899.801    -233.150     231.735
  H     -898.988    -232.895     233.261

 3  4  5  6  7  8  9  10  11  12  13  23  27  28  29  30  32 0
 6-311+G(2d,p)
 ****
 34  35 0
 6-311+G(2d,p)
 ****
 1  2  14  15  16  17  18  19  20  21  22  24  25  26 0
 3-21G
 ****
 31  33  36  37  38  39  40  41  42  43  44  45  46 0
 3-21G
 ****


