%nproc=1
%NoSave
%Mem=1900MB
#P OB98/GEN NMR

erre ene a

0 1
  C      573.112     133.522     -56.920
  O      573.063     133.268     -58.318
  P      573.582     134.349     -59.388
  C      571.444     135.799     -59.205
  O      572.249     134.979     -60.033
  C      570.370     136.508     -60.037
  O      569.552     137.315     -59.150
  C      570.921     137.426     -61.127
  O      570.026     137.350     -62.245
  C      570.865     138.796     -60.484
  O      570.853     139.853     -61.440
  C      569.582     138.664     -59.656
  N      569.517     139.636     -58.568
  C      568.590     140.686     -58.683
  O      567.884     140.791     -59.679
  N      568.500     141.595     -57.659
  C      569.312     141.518     -56.645
  N      569.143     142.401     -55.626
  C      570.380     140.492     -56.537
  C      570.404     139.589     -57.510
  O      574.563     133.832     -60.373
  O      574.119     135.563     -58.499
  H      569.987     139.841     -61.892
  H      575.057     135.433     -58.200
  H      571.052     140.489     -55.697
  H      571.128     138.781     -57.509
  H      568.700     138.777     -60.301
  H      571.745     138.933     -59.835
  H      571.933     137.141     -61.464
  H      569.714     135.743     -60.477
  H      568.299     142.970     -55.660
  H      572.085     136.560     -58.740
  H      569.506     142.207     -54.704
  H      570.996     135.195     -58.411
  P      570.593     136.827     -63.655
  C      572.211     138.808     -64.123
  O      571.050     138.098     -64.516
  O      569.240     136.388     -64.401
  O      571.547     135.676     -63.595
  H      569.457     135.705     -65.066
  H      572.368     139.633     -64.819
  H      573.080     138.150     -64.156
  H      572.088     139.220     -63.116
  H      572.721     132.679     -56.390
  H      572.526     134.388     -56.694
  H      574.126     133.690     -56.623

 3  4  5  6  7  8  9  10  11  12  13  23  27  28  29  30  32 0
 6-311+G(2d,p)
 ****
 34  35 0
 6-311+G(2d,p)
 ****
 1  2  14  15  16  17  18  19  20  21  22  24  25  26 0
 3-21G
 ****
 31  33  36  37  38  39  40  41  42  43  44  45  46 0
 3-21G
 ****


