%nproc=1
%NoSave
%Mem=1900MB
#P OB98/GEN NMR

erre ene a

0 1
  C     1417.989    -627.562     343.558
  O     1418.643    -628.224     342.511
  H     1418.016    -626.480     343.363
  H     1418.481    -627.745     344.504
  H     1416.948    -627.871     343.623
  P     1418.809    -629.821     342.596
  C     1418.621    -630.690     340.165
  O     1417.928    -630.452     341.391
  C     1417.630    -630.539     338.985
  O     1417.024    -629.213     339.064
  C     1418.342    -630.693     337.624
  O     1417.725    -631.634     336.762
  C     1418.397    -629.254     337.106
  O     1418.455    -629.116     335.711
  C     1417.180    -628.578     337.779
  N     1417.293    -627.142     337.934
  C     1416.459    -626.349     337.157
  O     1415.637    -626.770     336.332
  N     1416.615    -624.997     337.322
  C     1417.498    -624.370     338.153
  O     1417.582    -623.158     338.238
  C     1418.337    -625.272     338.945
  C     1418.221    -626.602     338.787
  O     1418.559    -630.425     343.943
  O     1420.312    -630.091     342.097
  H     1417.597    -629.384     335.366
  H     1420.870    -630.263     342.880
  H     1416.013    -624.417     336.742
  H     1419.056    -624.804     339.632
  H     1418.849    -627.291     339.355
  H     1416.274    -628.789     337.197
  H     1419.304    -628.789     337.522
  H     1419.367    -631.064     337.740
  H     1416.829    -631.286     339.094
  H     1419.008    -631.700     340.204
  H     1419.439    -629.978     340.038
  P     1418.345    -633.104     336.466
  C     1416.319    -634.471     337.397
  O     1417.689    -634.117     337.496
  O     1419.834    -633.149     336.276
  O     1417.648    -633.497     335.047
  H     1418.333    -634.039     334.567
  H     1416.071    -635.160     338.177
  H     1416.136    -634.928     336.447
  H     1415.716    -633.592     337.492

 6  7  8  9  10  11  12  13  14  15  16  26  31  32  33  34  35 0
 6-311+G(2d,p)
 ****
 36  37 0
 6-311+G(2d,p)
 ****
 1  2  3  4  5  17  18  19  20  21  22  23  24  25 0
 3-21G
 ****
 27  28  29  30  38  39  40  41  42  43  44  45 0
 3-21G
 ****


