%nproc=1
%NoSave
%Mem=1900MB
#P OB98/GEN NMR

erre ene a

0 1
  C      -98.344      52.451    -354.060
  O      -98.421      53.678    -354.754
  H      -97.888      52.632    -353.083
  H      -97.721      51.743    -354.611
  H      -99.340      52.028    -353.906
  P      -99.206      53.726    -356.152
  C      -99.999      56.167    -356.383
  O     -100.350      54.840    -356.008
  C     -100.601      57.162    -355.393
  O     -100.160      56.852    -354.051
  C     -100.179      58.606    -355.638
  O     -100.857      59.165    -356.746
  C     -100.510      59.230    -354.293
  O     -101.903      59.559    -354.204
  C     -100.153      58.095    -353.310
  N      -98.858      58.317    -352.664
  C      -98.843      59.238    -351.623
  O      -99.841      59.844    -351.233
  N      -97.616      59.495    -351.074
  C      -96.420      59.033    -351.550
  O      -95.336      59.479    -351.188
  C      -96.505      58.018    -352.608
  C      -97.701      57.719    -353.118
  O      -99.666      52.407    -356.679
  O      -98.156      54.419    -357.146
  H      -97.743      53.732    -357.703
  H     -102.385      58.722    -354.367
  H      -97.588      60.195    -350.346
  H      -95.581      57.573    -352.963
  H      -97.785      56.994    -353.924
  H     -100.920      58.005    -352.533
  H      -99.941      60.147    -354.128
  H      -99.096      58.652    -355.794
  H     -101.694      57.062    -355.425
  H     -100.394      56.365    -357.385
  H      -98.907      56.254    -356.404
  P     -100.082      59.415    -358.125
  C     -101.592      58.120    -359.752
  O     -100.336      58.152    -359.081
  O      -98.650      59.816    -357.987
  O     -100.929      60.571    -358.841
  H     -100.316      61.278    -359.126
  H     -101.651      57.240    -360.357
  H     -101.687      58.986    -360.373
  H     -102.382      58.110    -359.030

 6  7  8  9  10  11  12  13  14  15  16  27  31  32  33  34  35 0
 6-311+G(2d,p)
 ****
 36  37 0
 6-311+G(2d,p)
 ****
 1  2  3  4  5  17  18  19  20  21  22  23  24  25 0
 3-21G
 ****
 26  28  29  30  38  39  40  41  42  43  44  45 0
 3-21G
 ****


