%nproc=1
%NoSave
%Mem=1900MB
#P OB98/GEN NMR

erre ene a

0 1
  C        4.753     130.616      22.892
  O        5.876     131.308      23.447
  P        7.343     131.002      22.877
  C        7.196     132.115      20.555
  O        7.761     132.169      21.855
  C        7.576     133.361      19.733
  O        7.002     134.546      20.343
  C        9.098     133.567      19.635
  O        9.552     133.761      18.293
  C        9.362     134.717      20.596
  O       10.557     135.426      20.301
  C        8.054     135.515      20.540
  N        7.847     136.322      21.746
  C        8.401     137.600      21.743
  O        9.101     138.031      20.830
  N        8.177     138.345      22.871
  C        7.535     137.930      23.996
  O        7.403     138.624      24.997
  C        7.026     136.547      23.967
  C        7.204     135.820      22.856
  O        7.571     129.611      22.380
  O        8.288     131.306      24.146
  H       11.317     134.828      20.465
  H        9.002     130.637      24.158
  H        8.557     139.281      22.879
  H        6.531     136.171      24.850
  H        6.847     134.798      22.812
  H        8.047     136.200      19.688
  H        9.475     134.304      21.608
  H        9.649     132.680      19.972
  H        7.142     133.237      18.736
  H        6.108     132.064      20.629
  H        7.508     131.187      20.060
  P       11.003     133.349      17.760
  C       11.146     130.831      18.362
  O       10.966     131.802      17.348
  O       12.154     133.743      18.633
  O       11.098     134.104      16.344
  H       12.003     134.468      16.233
  H       11.460     129.892      17.899
  H       10.194     130.663      18.878
  H       11.904     131.139      19.094
  H        3.858     130.937      23.383
  H        4.879     129.563      23.032
  H        4.683     130.831      21.846

 3  4  5  6  7  8  9  10  11  12  13  23  28  29  30  31  32 0
 6-311+G(2d,p)
 ****
 33  34 0
 6-311+G(2d,p)
 ****
 1  2  14  15  16  17  18  19  20  21  22  24  25  26  27 0
 3-21G
 ****
 35  36  37  38  39  40  41  42  43  44  45 0
 3-21G
 ****


