%nproc=1
%NoSave
%Mem=1900MB
#P OB98/GEN NMR

erre ene a

0 1
  C       44.333      26.269     152.225
  O       45.252      25.832     153.236
  P       45.641      26.864     154.399
  C       48.072      27.200     153.531
  O       46.830      27.802     153.874
  C       48.931      28.172     152.715
  O       49.041      29.457     153.357
  C       50.362      27.698     152.511
  O       50.457      26.772     151.438
  C       51.055      29.001     152.143
  O       50.809      29.312     150.758
  C       50.340      30.014     153.048
  N       52.144      33.680     156.140
  C       51.515      33.735     154.943
  N       51.081      32.716     154.173
  C       51.340      31.537     154.758
  C       51.973      31.323     155.974
  C       52.386      32.463     156.680
  N       53.023      32.398     157.899
  N       52.070      29.972     156.242
  C       51.493      29.381     155.213
  N       51.044      30.286     154.289
  O       46.361      25.931     155.484
  O       44.471      27.583     154.986
  H       51.197      28.590     150.230
  H       46.162      26.258     156.383
  H       51.335      34.734     154.554
  H       51.374      28.312     155.100
  H       50.178      30.978     152.549
  H       52.139      28.952     152.272
  H       50.781      27.298     153.443
  H       48.446      28.314     151.740
  H       47.897      26.284     152.962
  H       53.266      33.260     158.360
  H       53.185      31.494     158.317
  H       48.587      26.897     154.449
  P       50.462      25.212     151.815
  C       53.039      24.890     151.757
  O       51.863      24.945     152.541
  O       50.620      24.499     150.388
  O       49.243      24.750     152.540
  H       50.178      23.628     150.400
  H       53.905      25.011     152.414
  H       53.055      25.690     151.010
  H       53.104      23.919     151.260
  H       44.172      25.477     151.523
  H       44.739      27.119     151.717
  H       43.403      26.537     152.680

 3  4  5  6  7  8  9  10  11  12  22  25  29  30  31  32 0
 6-311+G(2d,p)
 ****
 33  36  37 0
 6-311+G(2d,p)
 ****
 1  2  13  14  15  16  17  18  19  20  21  23  24  26 0
 3-21G
 ****
 27  28  34  35  38  39  40  41  42  43  44  45  46  47  48 0
 3-21G
 ****


