%nproc=1
%NoSave
%Mem=1900MB
#P OB98/GEN NMR

erre ene a

0 1
  C     -397.513     180.769    -171.159
  O     -398.220     180.864    -172.392
  P     -397.439     180.571    -173.763
  C     -396.638     182.987    -174.118
  O     -396.247     181.637    -173.916
  C     -395.436     183.928    -174.278
  O     -394.523     183.434    -175.299
  C     -395.807     185.368    -174.660
  O     -394.870     186.230    -174.002
  C     -395.577     185.374    -176.159
  O     -395.452     186.685    -176.685
  C     -394.329     184.496    -176.253
  N     -394.103     183.980    -177.594
  C     -393.083     184.567    -178.340
  O     -392.481     185.546    -177.899
  N     -392.791     184.046    -179.577
  C     -393.553     183.125    -180.081
  N     -393.222     182.621    -181.298
  C     -394.751     182.609    -179.392
  C     -394.948     183.058    -178.158
  O     -398.302     180.413    -174.971
  O     -396.652     179.211    -173.439
  H     -394.626     187.089    -176.339
  H     -396.609     178.669    -174.252
  H     -395.404     181.903    -179.883
  H     -395.796     182.734    -177.568
  H     -393.436     185.054    -175.939
  H     -396.424     184.889    -176.663
  H     -396.820     185.648    -174.364
  H     -394.885     183.934    -173.330
  H     -392.413     183.001    -181.768
  H     -397.237     183.315    -173.264
  H     -393.735     181.866    -181.734
  H     -397.298     183.041    -174.990
  P     -395.046     186.505    -172.430
  C     -396.184     188.834    -172.218
  O     -396.340     187.427    -172.229
  O     -393.851     187.544    -172.148
  O     -394.911     185.319    -171.533
  H     -393.601     187.489    -171.208
  H     -397.166     189.294    -172.357
  H     -395.530     189.168    -173.026
  H     -395.777     189.155    -171.254
  H     -398.176     180.993    -170.350
  H     -396.701     181.466    -171.159
  H     -397.131     179.776    -171.043

 3  4  5  6  7  8  9  10  11  12  13  23  27  28  29  30  32 0
 6-311+G(2d,p)
 ****
 34  35 0
 6-311+G(2d,p)
 ****
 1  2  14  15  16  17  18  19  20  21  22  24  25  26 0
 3-21G
 ****
 31  33  36  37  38  39  40  41  42  43  44  45  46 0
 3-21G
 ****


