%nproc=1
%NoSave
%Mem=1900MB
#P OB98/GEN NMR

erre ene a

0 1
  C     -316.645     494.710      39.996
  O     -316.250     494.688      41.350
  H     -316.473     493.717      39.563
  H     -316.059     495.441      39.437
  H     -317.709     494.948      39.923
  P     -316.320     496.081      42.148
  C     -315.704     495.028      44.444
  O     -316.674     495.724      43.675
  C     -316.384     493.878      45.189
  O     -316.949     492.951      44.232
  C     -315.436     493.049      46.038
  O     -315.131     493.659      47.284
  C     -316.243     491.775      46.215
  O     -317.179     491.877      47.302
  C     -316.976     491.651      44.869
  N     -316.384     490.625      44.025
  C     -317.287     489.822      43.323
  O     -318.505     489.949      43.407
  N     -316.728     488.826      42.562
  C     -315.404     488.538      42.466
  O     -314.979     487.596      41.804
  C     -314.502     489.404      43.233
  C     -315.015     490.396      43.969
  O     -317.657     496.752      41.585
  O     -315.125     496.966      41.974
  H     -317.428     497.491      40.985
  H     -317.711     491.051      47.276
  H     -317.371     488.233      42.047
  H     -313.435     489.205      43.180
  H     -314.380     491.041      44.549
  H     -318.031     491.400      45.024
  H     -315.606     490.924      46.429
  H     -314.528     492.814      45.477
  H     -317.200     494.287      45.801
  H     -315.262     495.706      45.179
  H     -314.917     494.658      43.786
  P     -313.577     493.940      47.613
  C     -313.952     495.993      49.215
  O     -313.483     495.500      47.970
  O     -312.944     493.817      46.155
  O     -313.020     493.008      48.636
  H     -313.590     494.041      45.451
  H     -313.801     497.051      49.259
  H     -313.413     495.522      50.011
  H     -314.995     495.777      49.314

 6  7  8  9  10  11  12  13  14  15  16  27  31  32  33  34  35 0
 6-311+G(2d,p)
 ****
 36  37 0
 6-311+G(2d,p)
 ****
 1  2  3  4  5  17  18  19  20  21  22  23  24  25 0
 3-21G
 ****
 26  28  29  30  38  39  40  41  42  43  44  45 0
 3-21G
 ****


