%nproc=1
%NoSave
%Mem=1900MB
#P OB98/GEN NMR

erre ene a

0 1
  C       33.291    -318.894      60.236
  O       33.016    -317.699      60.939
  H       32.903    -318.817      59.217
  H       34.375    -319.033      60.188
  H       32.847    -319.755      60.741
  P       31.499    -317.446      61.390
  C       31.625    -318.772      63.620
  O       31.085    -318.700      62.308
  C       30.508    -318.735      64.660
  O       29.622    -319.865      64.427
  C       30.997    -318.814      66.116
  O       30.183    -317.948      66.914
  C       30.711    -320.254      66.501
  O       30.539    -320.424      67.902
  C       29.452    -320.534      65.688
  N       27.114    -324.627      67.597
  C       26.924    -323.307      67.794
  N       27.557    -322.275      67.200
  C       28.424    -322.720      66.274
  C       28.722    -324.033      65.957
  C       28.032    -325.020      66.681
  N       28.268    -326.368      66.539
  N       29.710    -324.084      64.993
  C       30.018    -322.824      64.751
  N       29.268    -321.963      65.504
  O       30.690    -317.694      60.030
  O       31.214    -316.103      61.972
  H       29.802    -319.857      68.201
  H       30.642    -316.865      59.523
  H       26.170    -323.040      68.531
  H       30.788    -322.485      64.073
  H       28.545    -320.146      66.168
  H       31.541    -320.891      66.175
  H       32.053    -318.549      66.243
  H       29.915    -317.825      64.501
  H       32.288    -317.913      63.780
  H       27.803    -326.996      67.176
  H       29.024    -326.671      65.942
  H       32.210    -319.691      63.720
  P       30.934    -316.902      67.868
  C       31.137    -315.088      66.012
  O       31.806    -315.916      66.956
  O       32.037    -317.800      68.600
  O       30.034    -316.226      68.851
  H       32.196    -317.471      69.502
  H       31.855    -314.494      65.487
  H       30.450    -314.447      66.524
  H       30.603    -315.700      65.316

 6  7  8  9  10  11  12  13  14  15  25  28  32  33  34  35 0
 6-311+G(2d,p)
 ****
 36  39  40 0
 6-311+G(2d,p)
 ****
 1  2  3  4  5  16  17  18  19  20  21  22  23  24 0
 3-21G
 ****
 26  27  29  30  31  37  38  41  42  43  44  45  46  47 0
 3-21G
 ****
 48 0
 3-21G
 ****


