%nproc=1
%NoSave
%Mem=1900MB
#P OB98/GEN NMR

erre ene a

0 1
  C     -202.024     279.811    -102.075
  O     -201.506     280.585    -103.137
  H     -203.116     279.843    -102.083
  H     -201.702     278.774    -102.205
  H     -201.647     280.181    -101.118
  P     -201.898     282.141    -103.156
  C     -199.406     282.740    -102.772
  O     -200.750     282.923    -102.348
  C     -198.631     284.047    -102.625
  O     -199.207     285.023    -103.531
  C     -198.645     284.646    -101.207
  O     -197.309     284.802    -100.723
  C     -199.258     286.027    -101.386
  O     -198.617     287.032    -100.601
  C     -199.100     286.294    -102.877
  N     -200.616     291.159    -102.859
  C     -199.406     290.598    -102.640
  N     -199.043     289.306    -102.765
  C     -200.080     288.563    -103.188
  C     -201.363     288.993    -103.476
  C     -201.624     290.359    -103.278
  N     -202.872     290.920    -103.449
  N     -202.157     287.936    -103.877
  C     -201.377     286.877    -103.790
  N     -200.118     287.204    -103.360
  O     -203.162     282.212    -102.174
  O     -202.213     282.697    -104.503
  H     -197.703     287.108    -100.935
  H     -203.877     282.724    -102.597
  H     -198.626     291.280    -102.312
  H     -201.680     285.855    -103.980
  H     -198.119     286.719    -103.120
  H     -200.315     285.987    -101.099
  H     -199.230     284.046    -100.501
  H     -197.598     283.874    -102.952
  H     -199.391     282.435    -103.823
  H     -202.996     291.880    -103.171
  H     -203.650     290.310    -103.653
  H     -198.948     281.948    -102.172
  P     -197.018     284.273     -99.231
  C     -195.591     282.217     -99.949
  O     -196.779     282.689     -99.324
  O     -198.450     284.387     -98.525
  O     -195.972     285.050     -98.505
  H     -198.340     284.504     -97.562
  H     -195.580     281.147     -99.932
  H     -194.738     282.591     -99.422
  H     -195.562     282.558    -100.963

 6  7  8  9  10  11  12  13  14  15  25  28  32  33  34  35 0
 6-311+G(2d,p)
 ****
 36  39  40 0
 6-311+G(2d,p)
 ****
 1  2  3  4  5  16  17  18  19  20  21  22  23  24 0
 3-21G
 ****
 26  27  29  30  31  37  38  41  42  43  44  45  46  47  48 0
 3-21G
 ****


