%nproc=1
%NoSave
%Mem=1900MB
#P OB98/GEN NMR

erre ene a

0 1
  C      -78.667     -26.519    -237.893
  O      -78.169     -27.094    -239.088
  P      -77.434     -28.518    -238.985
  C      -74.999     -27.844    -239.715
  O      -75.896     -28.194    -238.673
  C      -73.826     -28.827    -239.753
  O      -73.281     -28.992    -238.423
  C      -74.186     -30.230    -240.218
  O      -74.341     -30.294    -241.629
  C      -73.015     -31.035    -239.670
  O      -71.873     -30.907    -240.533
  C      -72.749     -30.328    -238.325
  N      -73.309     -31.039    -237.178
  C      -72.435     -31.868    -236.480
  O      -71.252     -32.010    -236.788
  N      -72.976     -32.546    -235.421
  C      -74.286     -32.529    -235.037
  O      -74.726     -33.192    -234.108
  C      -75.168     -31.662    -235.834
  C      -74.648     -30.968    -236.849
  O      -77.454     -28.972    -240.518
  O      -78.103     -29.454    -238.036
  H      -77.472     -28.209    -241.122
  H      -71.130     -31.348    -240.077
  H      -72.356     -33.138    -234.884
  H      -76.216     -31.629    -235.566
  H      -75.286     -30.332    -237.452
  H      -71.669     -30.215    -238.165
  H      -73.241     -32.105    -239.581
  H      -75.114     -30.557    -239.733
  H      -73.039     -28.400    -240.390
  H      -74.624     -26.833    -239.541
  H      -75.536     -27.856    -240.669
  P      -75.503     -31.264    -242.180
  C      -73.638     -33.006    -242.736
  O      -74.899     -32.746    -242.161
  O      -75.529     -30.863    -243.730
  O      -76.810     -31.093    -241.474
  H      -74.641     -30.753    -244.106
  H      -73.251     -33.940    -242.323
  H      -72.927     -32.204    -242.522
  H      -73.747     -33.117    -243.818
  H      -79.127     -25.579    -238.114
  H      -77.860     -26.368    -237.207
  H      -79.390     -27.176    -237.455

 3  4  5  6  7  8  9  10  11  12  13  24  28  29  30  31  32 0
 6-311+G(2d,p)
 ****
 33  34 0
 6-311+G(2d,p)
 ****
 1  2  14  15  16  17  18  19  20  21  22  23  25  26  27 0
 3-21G
 ****
 35  36  37  38  39  40  41  42  43  44  45 0
 3-21G
 ****


