%nproc=1
%NoSave
%Mem=1900MB
#P OB98/GEN NMR

erre ene a

0 1
  C     -394.657    -281.888     118.156
  O     -394.242    -283.164     117.669
  P     -393.880    -283.330     116.116
  C     -396.208    -283.398     115.024
  O     -395.029    -282.631     115.236
  C     -396.804    -283.184     113.624
  O     -397.432    -281.880     113.523
  C     -395.782    -283.291     112.476
  O     -396.465    -283.893     111.367
  C     -395.473    -281.835     112.195
  O     -394.876    -281.649     110.919
  C     -396.853    -281.211     112.382
  N     -396.797    -279.768     112.578
  C     -396.782    -278.971     111.430
  O     -396.714    -279.495     110.317
  N     -396.813    -277.606     111.583
  C     -396.717    -277.087     112.769
  N     -396.773    -275.731     112.878
  C     -396.546    -277.903     113.992
  C     -396.624    -279.217     113.821
  O     -393.508    -284.709     115.683
  O     -392.640    -282.316     115.932
  H     -393.954    -281.993     110.944
  H     -392.019    -282.691     115.272
  H     -396.387    -277.427     114.949
  H     -396.519    -279.899     114.656
  H     -397.500    -281.421     111.520
  H     -394.774    -281.452     112.949
  H     -394.905    -283.891     112.733
  H     -397.596    -283.939     113.481
  H     -396.865    -275.187     112.032
  H     -396.952    -283.126     115.776
  H     -396.749    -275.255     113.770
  H     -395.975    -284.461     115.196
  P     -396.670    -285.485     111.358
  C     -395.135    -285.741     109.271
  O     -395.423    -286.145     110.594
  O     -397.843    -285.653     110.268
  O     -397.086    -286.103     112.653
  H     -398.326    -286.480     110.447
  H     -394.115    -286.062     109.021
  H     -395.187    -284.653     109.165
  H     -395.832    -286.217     108.581
  H     -394.857    -281.955     119.205
  H     -395.544    -281.581     117.642
  H     -393.881    -281.172     117.986

 3  4  5  6  7  8  9  10  11  12  13  23  27  28  29  30  32 0
 6-311+G(2d,p)
 ****
 34  35 0
 6-311+G(2d,p)
 ****
 1  2  14  15  16  17  18  19  20  21  22  24  25  26 0
 3-21G
 ****
 31  33  36  37  38  39  40  41  42  43  44  45  46 0
 3-21G
 ****


