%nproc=1
%NoSave
%Mem=1900MB
#P OB98/GEN NMR

erre ene a

0 1
  C     -479.109    -749.105    -224.748
  O     -478.538    -748.591    -223.560
  H     -479.294    -748.278    -225.441
  H     -480.060    -749.593    -224.526
  H     -478.429    -749.816    -225.229
  P     -478.043    -749.606    -222.432
  C     -475.753    -748.540    -221.908
  O     -477.073    -748.787    -221.444
  C     -474.960    -747.796    -220.840
  O     -475.620    -746.560    -220.489
  C     -474.799    -748.568    -219.531
  O     -473.829    -749.594    -219.669
  C     -474.421    -747.440    -218.586
  O     -473.036    -747.091    -218.723
  C     -475.324    -746.292    -219.098
  N     -476.560    -746.142    -218.310
  C     -476.420    -745.509    -217.087
  O     -475.343    -745.089    -216.650
  N     -477.566    -745.401    -216.333
  C     -478.781    -745.935    -216.651
  O     -479.713    -746.024    -215.862
  C     -478.871    -746.532    -217.999
  C     -477.774    -746.614    -218.744
  O     -477.484    -750.903    -222.922
  O     -479.353    -749.838    -221.536
  H     -479.763    -750.693    -221.770
  H     -472.525    -747.913    -218.608
  H     -477.467    -744.982    -215.421
  H     -479.845    -746.920    -218.323
  H     -477.824    -747.075    -219.730
  H     -474.781    -745.332    -219.072
  H     -474.579    -747.704    -217.534
  H     -475.761    -748.991    -219.230
  H     -473.972    -747.540    -221.268
  H     -475.805    -747.930    -222.815
  H     -475.280    -749.506    -222.146
  P     -474.141    -751.091    -219.207
  C     -472.930    -752.708    -220.791
  O     -472.862    -751.997    -219.564
  O     -475.440    -751.643    -219.682
  O     -474.096    -751.031    -217.598
  H     -474.933    -751.407    -217.240
  H     -472.032    -753.274    -220.926
  H     -473.040    -752.015    -221.599
  H     -473.770    -753.371    -220.773

 6  7  8  9  10  11  12  13  14  15  16  27  31  32  33  34  35 0
 6-311+G(2d,p)
 ****
 36  37 0
 6-311+G(2d,p)
 ****
 1  2  3  4  5  17  18  19  20  21  22  23  24  25 0
 3-21G
 ****
 26  28  29  30  38  39  40  41  42  43  44  45 0
 3-21G
 ****


