%nproc=1
%NoSave
%Mem=1900MB
#P OB98/GEN NMR

erre ene a

0 1
  C     -321.109     152.132      41.383
  O     -321.668     153.367      40.974
  H     -320.331     152.329      42.129
  H     -320.659     151.625      40.526
  H     -321.878     151.496      41.831
  P     -322.864     153.289      39.906
  C     -321.763     154.708      38.010
  O     -322.171     153.423      38.461
  C     -321.308     154.636      36.549
  O     -320.174     153.720      36.461
  C     -322.386     154.101      35.590
  O     -322.184     154.691      34.296
  C     -322.042     152.625      35.523
  O     -322.665     152.016      34.417
  C     -320.516     152.716      35.485
  N     -319.192     148.170      33.590
  C     -319.766     149.252      33.023
  N     -320.079     150.433      33.592
  C     -319.711     150.442      34.887
  C     -319.124     149.417      35.608
  C     -318.862     148.227      34.907
  N     -318.301     147.114      35.486
  N     -318.924     149.798      36.922
  C     -319.380     151.036      36.993
  N     -319.863     151.466      35.787
  O     -323.613     154.692      40.100
  O     -323.789     152.129      40.053
  H     -322.315     151.115      34.268
  H     -324.347     154.590      40.738
  H     -320.003     149.155      31.965
  H     -319.396     151.658      37.876
  H     -320.147     153.055      34.506
  H     -322.379     152.095      36.422
  H     -323.407     154.305      35.930
  H     -320.946     155.619      36.235
  H     -320.942     155.053      38.643
  H     -322.606     155.404      38.094
  H     -318.175     146.289      34.921
  H     -318.082     147.130      36.476
  P     -323.200     155.837      33.791
  C     -324.866     154.342      32.443
  O     -324.658     155.215      33.542
  O     -322.683     156.092      32.292
  O     -323.171     157.110      34.569
  H     -322.624     157.056      32.122
  H     -325.888     154.024      32.428
  H     -324.228     153.488      32.540
  H     -324.639     154.855      31.532

 6  7  8  9  10  11  12  13  14  15  25  28  32  33  34  35 0
 6-311+G(2d,p)
 ****
 36  37  40 0
 6-311+G(2d,p)
 ****
 1  2  3  4  5  16  17  18  19  20  21  22  23  24 0
 3-21G
 ****
 26  27  29  30  31  38  39 41  42  43  44  45  46  47  48 0
 3-21G
 ****


