%nproc=1
%NoSave
%Mem=1900MB
#P OB98/GEN NMR

erre ene a

0 1
  C      549.149    -752.435     260.836
  O      548.928    -753.837     260.975
  P      547.416    -754.331     261.184
  C      546.989    -756.739     260.229
  O      547.439    -755.928     261.302
  C      548.173    -757.220     259.367
  O      549.022    -758.071     260.182
  C      547.796    -758.055     258.155
  O      548.897    -758.064     257.234
  C      547.644    -759.435     258.767
  O      547.698    -760.457     257.784
  C      548.774    -759.452     259.818
  N      548.447    -760.241     261.025
  C      548.492    -761.634     260.948
  O      548.781    -762.255     259.909
  N      548.140    -762.317     262.074
  C      547.805    -761.764     263.281
  O      547.421    -762.429     264.222
  C      547.914    -760.306     263.349
  C      548.219    -759.629     262.248
  O      546.729    -754.052     259.767
  O      546.711    -753.637     262.299
  H      546.945    -760.298     257.172
  H      546.158    -753.267     259.824
  H      548.113    -763.325     262.003
  H      547.725    -759.827     264.305
  H      548.283    -758.539     262.277
  H      549.697    -759.875     259.400
  H      546.673    -759.514     259.263
  H      546.887    -757.735     257.644
  H      548.768    -756.347     259.067
  H      546.278    -756.190     259.622
  H      546.460    -757.614     260.626
  P      548.605    -757.704     255.698
  C      550.433    -755.896     255.652
  O      549.973    -757.124     255.109
  O      547.379    -756.885     255.449
  O      548.504    -759.155     255.012
  H      548.041    -759.073     254.152
  H      551.522    -755.870     255.583
  H      550.138    -755.788     256.703
  H      550.019    -755.075     255.078
  H      550.195    -752.250     260.704
  H      548.806    -751.931     261.715
  H      548.613    -752.072     259.984

 3  4  5  6  7  8  9  10  11  12  13  23  28  29  30  31  32 0
 6-311+G(2d,p)
 ****
 33  34 0
 6-311+G(2d,p)
 ****
 1  2  14  15  16  17  18  19  20  21  22  24  25  26  27 0
 3-21G
 ****
 35  36  37  38  39  40  41  42  43  44  45 0
 3-21G
 ****


