%nproc=1
%NoSave
%Mem=1900MB
#P OB98/GEN NMR

erre ene a

0 1
  C      -42.867    -123.139    -253.881
  O      -42.515    -124.504    -253.792
  H      -42.613    -122.647    -252.936
  H      -43.943    -123.043    -254.048
  H      -42.319    -122.650    -254.691
  P      -42.614    -125.363    -255.146
  C      -44.430    -125.619    -256.986
  O      -44.136    -125.249    -255.646
  C      -45.783    -126.318    -257.057
  O      -45.761    -127.535    -256.271
  C      -46.947    -125.490    -256.528
  O      -47.434    -124.580    -257.506
  C      -47.963    -126.583    -256.242
  O      -48.567    -127.020    -257.477
  C      -47.076    -127.694    -255.662
  N      -48.749    -129.594    -251.270
  C      -49.142    -129.878    -252.566
  N      -50.125    -130.789    -252.714
  N      -48.617    -129.311    -253.624
  C      -47.650    -128.413    -253.325
  C      -47.173    -128.049    -252.084
  C      -47.756    -128.687    -250.924
  O      -47.429    -128.493    -249.754
  N      -46.180    -127.113    -252.182
  C      -46.067    -126.890    -253.476
  N      -46.943    -127.649    -254.215
  O      -42.512    -126.880    -254.631
  O      -41.575    -125.067    -256.173
  H      -48.797    -126.217    -257.977
  H      -42.018    -127.403    -255.293
  H      -49.192    -130.051    -250.490
  H      -45.373    -126.198    -253.930
  H      -47.439    -128.694    -255.923
  H      -48.771    -126.248    -255.590
  H      -50.604    -131.222    -251.938
  H      -46.687    -124.980    -255.591
  H      -50.409    -131.036    -253.654
  H      -45.958    -126.609    -258.103
  H      -43.650    -126.300    -257.350
  H      -44.437    -124.719    -257.612
  P      -47.630    -123.046    -257.060
  C      -48.934    -121.928    -255.105
  O      -48.797    -123.063    -255.959
  O      -48.338    -122.389    -258.338
  O      -46.378    -122.332    -256.680
  H      -48.183    -121.424    -258.347
  H      -49.749    -122.086    -254.430
  H      -49.125    -121.057    -255.697
  H      -48.031    -121.790    -254.548

 6  7  8  9  10  11  12  13  14  15  26  29  33  34 0
 6-311+G(2d,p)
 ****
 36  38  39  40  41 0
 6-311+G(2d,p)
 ****
 1  2  3  4  5  16  17  18  19  20  21  22  23  24  25 0
 3-21G
 ****
 27  28  30  31  32  35  37  42  43  44  45  46  47 0
 3-21G
 ****
 48  49 0
 3-21G
 ****


