%nproc=1
%NoSave
%Mem=1900MB
#P OB98/GEN NMR

erre ene a

0 1
  C     -815.495     -18.361      29.734
  O     -815.433     -16.987      30.052
  P     -814.810     -16.572      31.469
  C     -812.811     -14.957      30.998
  O     -814.195     -15.103      31.307
  C     -812.568     -13.591      30.346
  O     -813.098     -13.583      28.997
  C     -813.254     -12.443      31.060
  O     -812.521     -12.046      32.214
  C     -813.289     -11.373      29.975
  O     -812.043     -10.669      29.910
  C     -813.511     -12.223      28.703
  N     -814.880     -12.165      28.219
  C     -815.153     -11.194      27.267
  O     -814.295     -10.402      26.862
  N     -816.442     -11.126      26.815
  C     -817.488     -11.886      27.266
  O     -818.640     -11.751      26.870
  C     -817.150     -12.881      28.300
  C     -815.887     -12.971      28.728
  O     -813.516     -17.511      31.609
  O     -815.739     -16.730      32.625
  H     -811.348     -11.345      29.777
  H     -813.397     -17.763      32.544
  H     -816.653     -10.443      26.106
  H     -817.951     -13.506      28.672
  H     -815.620     -13.686      29.490
  H     -812.840     -11.875      27.903
  H     -814.074     -10.629      30.153
  H     -814.278     -12.717      31.324
  H     -811.487     -13.427      30.287
  H     -812.507     -15.755      30.308
  H     -812.227     -15.057      31.916
  P     -813.368     -11.359      33.406
  C     -812.126     -12.841      35.174
  O     -812.454     -11.546      34.707
  O     -814.558     -12.409      33.572
  O     -813.800      -9.965      33.085
  H     -814.279     -13.324      33.376
  H     -811.982     -13.532      34.328
  H     -812.925     -13.217      35.809
  H     -811.201     -12.789      35.751
  H     -815.931     -18.483      28.765
  H     -816.094     -18.869      30.461
  H     -814.507     -18.772      29.735

 3  4  5  6  7  8  9  10  11  12  13  23  28  29  30  31  32 0
 6-311+G(2d,p)
 ****
 33  34 0
 6-311+G(2d,p)
 ****
 1  2  14  15  16  17  18  19  20  21  22  24  25  26 0
 3-21G
 ****
 27  35  36  37  38  39  40  41  42  43  44  45 0
 3-21G
 ****


