%nproc=1
%NoSave
%Mem=1900MB
#P OB98/GEN NMR

erre ene a

0 1
  C     -314.712     -91.842     846.616
  O     -313.885     -92.550     847.521
  P     -312.516     -91.990     848.131
  C     -312.612     -93.261     850.443
  O     -311.946     -93.053     849.184
  C     -311.890     -94.329     851.278
  O     -312.038     -95.625     850.622
  C     -310.377     -94.042     851.416
  O     -309.862     -94.273     852.721
  C     -309.778     -94.856     850.283
  O     -308.397     -95.121     850.433
  C     -310.696     -96.079     850.229
  N     -308.395     -99.279     846.988
  C     -307.917     -98.750     848.182
  N     -306.678     -99.108     848.546
  N     -308.620     -97.937     848.931
  C     -309.816     -97.594     848.395
  C     -310.380     -98.038     847.228
  C     -309.630     -98.977     846.426
  O     -310.003     -99.483     845.382
  N     -311.623     -97.486     847.024
  C     -311.804     -96.690     848.062
  N     -310.731     -96.745     848.928
  O     -312.524     -90.552     848.545
  O     -311.466     -92.127     846.901
  H     -308.281     -95.704     851.196
  H     -310.827     -91.394     847.004
  H     -307.822     -99.920     846.461
  H     -312.685     -96.082     848.236
  H     -310.403     -96.845     850.955
  H     -309.894     -94.277     849.336
  H     -306.056     -99.647     847.957
  H     -310.169     -92.971     851.247
  H     -306.266     -98.552     849.289
  H     -312.366     -94.378     852.268
  H     -313.639     -93.611     850.181
  H     -312.720     -92.311     850.981
  P     -309.267     -93.217     853.763
  C     -309.713     -94.804     855.733
  O     -308.759     -94.017     855.057
  O     -310.536     -92.419     854.315
  O     -308.259     -92.269     853.175
  H     -310.449     -91.450     854.092
  H     -309.323     -95.069     856.713
  H     -309.923     -95.718     855.172
  H     -310.644     -94.243     855.857
  H     -315.562     -92.441     846.366
  H     -314.159     -91.619     845.727
  H     -315.039     -90.930     847.070

 3  4  5  6  7  8  9  10  11  12  23  26  30  31 0
 6-311+G(2d,p)
 ****
 33  35  36  37  38 0
 6-311+G(2d,p)
 ****
 1  2  13  14  15  16  17  18  19  20  21  22  24  25 0
 3-21G
 ****
 27  28  29  32  34  39  40  41  42  43  44  45  46  47  48  49 0
 3-21G
 ****


