%nproc=1
%NoSave
%Mem=1900MB
#P OB98/GEN NMR

erre ene a

0 1
  C      134.470    -320.169    -102.565
  O      133.490    -319.356    -101.956
  H      134.034    -320.633    -103.455
  H      134.777    -320.957    -101.871
  H      135.343    -319.584    -102.868
  P      133.958    -318.233    -100.917
  C      134.208    -316.223    -102.515
  O      134.880    -317.183    -101.711
  C      134.019    -314.894    -101.781
  O      135.303    -314.347    -101.400
  C      133.351    -313.834    -102.656
  O      131.937    -313.887    -102.700
  C      133.831    -312.541    -102.002
  O      132.980    -312.176    -100.902
  C      135.229    -312.914    -101.498
  N      139.786    -310.623    -101.839
  C      139.023    -310.876    -100.716
  N      139.508    -310.408     -99.546
  N      137.882    -311.513    -100.750
  C      137.473    -311.839    -102.000
  C      138.138    -311.629    -103.189
  C      139.428    -310.970    -103.136
  O      140.143    -310.715    -104.104
  N      137.416    -312.098    -104.262
  C      136.286    -312.523    -103.727
  N      136.286    -312.410    -102.355
  O      135.025    -318.997     -99.992
  O      132.866    -317.629    -100.090
  H      133.131    -311.236    -100.695
  H      135.063    -318.578     -99.115
  H      140.669    -310.156    -101.753
  H      135.453    -312.941    -104.283
  H      135.412    -312.515    -100.493
  H      133.816    -311.700    -102.704
  H      140.321    -309.812     -99.488
  H      133.753    -313.875    -103.674
  H      138.862    -310.335     -98.756
  H      133.456    -315.069    -100.855
  H      133.235    -316.650    -102.768
  H      134.749    -316.067    -103.455
  P      131.146    -313.235    -103.932
  C      130.567    -315.572    -104.932
  O      131.172    -314.309    -105.122
  O      132.146    -312.091    -104.427
  O      129.801    -312.692    -103.596
  H      131.892    -311.228    -104.041
  H      130.677    -316.158    -105.821
  H      129.527    -315.441    -104.718
  H      131.039    -316.074    -104.113

 6  7  8  9  10  11  12  13  14  15  26  29  33  34 0
 6-311+G(2d,p)
 ****
 36  38  39  40  41 0
 6-311+G(2d,p)
 ****
 1  2  3  4  5  16  17  18  19  20  21  22  23  24  25 0
 3-21G
 ****
 27  28  30  31  32  35  37  42  43  44  45  46  47 0
 3-21G
 ****
 48  49 0
 3-21G
 ****


