%nproc=1
%NoSave
%Mem=1900MB
#P OB98/GEN NMR

erre ene a

0 1
  C       39.828     -39.402      24.564
  O       40.838     -38.501      24.154
  H       39.198     -38.905      25.307
  H       40.268     -40.293      25.021
  H       39.205     -39.689      23.713
  P       41.948     -39.017      23.122
  C       43.316     -40.286      24.914
  O       42.531     -40.380      23.730
  C       44.087     -41.583      25.152
  O       43.192     -42.712      25.117
  C       45.160     -41.872      24.107
  O       46.289     -41.046      24.311
  C       45.384     -43.356      24.340
  O       46.209     -43.578      25.494
  C       43.937     -43.842      24.604
  N       43.285     -44.398      23.421
  C       43.872     -45.547      22.877
  O       44.888     -46.023      23.384
  N       43.298     -46.108      21.763
  C       42.215     -45.602      21.263
  N       41.696     -46.209      20.162
  C       41.547     -44.413      21.826
  C       42.134     -43.861      22.886
  O       42.993     -38.021      22.722
  O       41.098     -39.519      21.860
  H       46.379     -44.541      25.525
  H       41.022     -38.808      21.195
  H       40.640     -44.030      21.383
  H       41.707     -42.984      23.361
  H       43.927     -44.610      25.389
  H       45.877     -43.839      23.496
  H       44.752     -41.738      23.098
  H       44.522     -41.538      26.160
  H       42.180     -47.034      19.824
  H       42.626     -40.101      25.744
  H       40.780     -46.004      19.790
  H       44.012     -39.441      24.850
  P       47.005     -40.286      23.092
  C       49.019     -41.876      23.263
  O       47.993     -41.363      22.427
  O       47.639     -38.984      23.442
  O       45.846     -40.158      21.996
  H       45.221     -39.429      22.238
  H       49.609     -42.579      22.713
  H       48.580     -42.363      24.109
  H       49.642     -41.073      23.597

 6  7  8  9  10  11  12  13  14  15  16  26  30  31  32  33  35 0
 6-311+G(2d,p)
 ****
 37  38 0
 6-311+G(2d,p)
 ****
 1  2  3  4  5  17  18  19  20  21  22  23  24  25 0
 3-21G
 ****
 27  28  29  34  36  39  40  41  42  43  44  45  46 0
 3-21G
 ****


