%nproc=1
%NoSave
%Mem=1900MB
#P OB98/GEN NMR

erre ene a

0 1
  C     -119.120     106.795     101.288
  O     -118.459     105.567     101.623
  P     -119.128     104.194     101.141
  C     -120.692     103.922     103.204
  O     -120.588     104.078     101.795
  C     -122.044     104.443     103.702
  O     -123.140     103.653     103.200
  C     -122.188     104.417     105.217
  O     -121.574     105.548     105.818
  C     -123.699     104.497     105.371
  O     -124.136     105.861     105.209
  C     -124.190     103.642     104.195
  N     -127.875     100.333     105.508
  C     -127.903     101.660     105.246
  N     -126.878     102.474     104.921
  C     -125.727     101.788     104.862
  C     -125.543     100.435     105.104
  C     -126.684      99.693     105.441
  N     -126.647      98.342     105.705
  N     -124.214     100.090     104.957
  C     -123.609     101.212     104.619
  N     -124.482     102.265     104.557
  O     -118.285     103.084     101.929
  O     -119.071     103.978      99.664
  H     -123.952     106.321     106.050
  H     -118.195     102.284     101.376
  H     -128.882     102.127     105.304
  H     -122.553     101.308     104.407
  H     -125.095     104.053     103.729
  H     -124.040     104.168     106.355
  H     -121.816     103.472     105.631
  H     -122.165     105.472     103.337
  H     -119.878     104.454     103.700
  H     -127.512      97.869     105.914
  H     -125.766      97.854     105.633
  H     -120.564     102.863     103.455
  P     -120.093     105.350     106.407
  C     -120.878     105.588     108.873
  O     -120.290     104.765     107.884
  O     -119.598     106.854     106.645
  O     -119.172     104.590     105.513
  H     -118.628     106.907     106.539
  H     -121.212     104.958     109.701
  H     -121.744     106.127     108.474
  H     -120.138     106.301     109.244
  H     -118.558     107.619     101.675
  H     -120.101     106.800     101.715
  H     -119.194     106.882     100.224

 3  4  5  6  7  8  9  10  11  12  22  25  29  30  31  32 0
 6-311+G(2d,p)
 ****
 33  36  37 0
 6-311+G(2d,p)
 ****
 1  2  13  14  15  16  17  18  19  20  21  23  24  26 0
 3-21G
 ****
 27  28  34  35  38  39  40  41  42  43  44  45  46  47  48 0
 3-21G
 ****


