%nproc=1
%NoSave
%Mem=1900MB
#P OB98/GEN NMR

erre ene a

0 1
  C      163.745    -241.494      15.778
  O      164.096    -241.431      17.146
  H      164.205    -240.651      15.258
  H      162.659    -241.429      15.664
  H      164.112    -242.425      15.335
  P      163.493    -242.579      18.092
  C      161.013    -243.200      18.530
  O      161.969    -242.161      18.384
  C      159.605    -242.618      18.617
  O      159.245    -241.962      17.381
  C      158.516    -243.645      18.899
  O      158.426    -243.931      20.285
  C      157.284    -242.926      18.366
  O      156.779    -241.969      19.318
  C      157.840    -242.219      17.122
  N      155.616    -242.314      12.590
  C      155.593    -241.346      13.573
  N      154.819    -240.265      13.334
  N      156.258    -241.434      14.694
  C      156.963    -242.584      14.809
  C      157.079    -243.610      13.900
  C      156.360    -243.486      12.650
  O      156.390    -244.277      11.712
  N      157.900    -244.601      14.371
  C      158.249    -244.194      15.577
  N      157.691    -242.983      15.894
  O      164.218    -242.325      19.498
  O      163.698    -243.976      17.614
  H      157.470    -241.313      19.509
  H      164.318    -243.175      19.964
  H      155.095    -242.182      11.742
  H      158.895    -244.736      16.251
  H      157.358    -241.249      16.950
  H      156.469    -243.621      18.161
  H      154.052    -240.298      12.675
  H      158.683    -244.559      18.316
  H      154.779    -239.561      14.060
  H      159.617    -241.848      19.400
  H      161.229    -243.758      19.446
  H      161.086    -243.879      17.673
  P      157.365    -245.044      20.750
  C      154.765    -245.035      20.709
  O      155.959    -244.290      20.907
  O      157.789    -245.348      22.263
  O      157.347    -246.276      19.911
  H      157.396    -246.192      22.556
  H      153.918    -244.396      20.848
  H      154.725    -245.838      21.415
  H      154.753    -245.432      19.715

 6  7  8  9  10  11  12  13  14  15  26  29  33  34 0
 6-311+G(2d,p)
 ****
 36  38  39  40  41 0
 6-311+G(2d,p)
 ****
 1  2  3  4  5  16  17  18  19  20  21  22  23  24  25 0
 3-21G
 ****
 27  28  30  31  32  35  37  42  43  44  45  46  47 0
 3-21G
 ****
 48  49 0
 3-21G
 ****


