%nproc=1
%NoSave
%Mem=1900MB
#P OB98/GEN NMR

erre ene a

0 1
  C        3.354      92.887     207.391
  O        2.216      93.633     207.769
  H        3.076      92.218     206.573
  H        3.714      92.285     208.228
  H        4.148      93.553     207.041
  P        2.336      94.649     209.002
  C        3.000      96.679     207.553
  O        3.401      95.771     208.574
  C        2.380      97.935     208.177
  O        3.396      98.567     208.995
  C        1.912      98.947     207.121
  O        0.556      99.349     207.294
  C        2.982     100.030     207.177
  O        2.548     101.310     206.767
  C        3.476      99.956     208.626
  N        4.833     100.463     208.816
  C        4.968     101.781     209.240
  O        4.038     102.543     209.491
  N        6.258     102.223     209.388
  C        7.389     101.502     209.154
  O        8.518     101.952     209.311
  C        7.181     100.123     208.685
  C        5.932      99.674     208.539
  O        2.589      94.024     210.332
  O        0.947      95.446     208.982
  H        3.336     101.888     206.711
  H        0.362      95.099     209.681
  H        6.368     103.174     209.706
  H        8.057      99.525     208.480
  H        5.742      98.661     208.197
  H        2.816     100.521     209.285
  H        3.799      99.739     206.505
  H        1.916      98.497     206.122
  H        1.562      97.632     208.840
  H        2.268      96.171     206.918
  H        3.868      96.957     206.946
  P       -0.696      98.645     206.599
  C       -1.884      98.285     208.908
  O       -1.419      97.725     207.689
  O       -0.433      98.033     205.265
  O       -1.733      99.862     206.381
  H       -2.229      99.662     205.561
  H       -2.336      97.519     209.503
  H       -2.606      99.046     208.698
  H       -1.061      98.712     209.441

 6  7  8  9  10  11  12  13  14  15  16  26  31  32  33  34  35 0
 6-311+G(2d,p)
 ****
 36  37 0
 6-311+G(2d,p)
 ****
 1  2  3  4  5  17  18  19  20  21  22  23  24  25 0
 3-21G
 ****
 27  28  29  30  38  39  40  41  42  43  44  45 0
 3-21G
 ****


