%nproc=1
%NoSave
%Mem=1900MB
#P OB98/GEN NMR

erre ene a

0 1
  C      263.223    -211.556     240.061
  O      262.000    -211.364     239.370
  P      261.903    -210.347     238.139
  C      262.352    -212.281     236.419
  O      262.665    -210.988     236.894
  C      262.359    -212.262     234.887
  O      261.256    -211.473     234.391
  C      263.654    -211.658     234.338
  O      264.596    -212.676     234.044
  C      263.173    -210.903     233.113
  O      263.019    -211.801     231.996
  C      261.791    -210.391     233.584
  N      261.746    -209.155     234.387
  C      262.087    -207.938     233.802
  O      262.403    -207.815     232.622
  N      262.078    -206.851     234.638
  C      261.722    -206.862     235.956
  O      261.947    -205.951     236.744
  C      261.116    -208.108     236.436
  C      261.179    -209.187     235.653
  O      262.864    -209.148     238.586
  O      260.527    -209.870     237.808
  H      262.300    -212.417     232.222
  H      262.345    -208.411     238.955
  H      262.458    -205.992     234.254
  H      260.693    -208.122     237.433
  H      260.771    -210.130     236.003
  H      261.115    -210.246     232.732
  H      263.900    -210.156     232.801
  H      264.067    -210.937     235.055
  H      262.233    -213.286     234.517
  H      261.369    -212.590     236.792
  H      263.082    -213.007     236.792
  P      266.122    -212.287     233.770
  C      266.784    -212.900     236.168
  O      266.716    -211.873     235.202
  O      266.346    -211.299     232.673
  O      266.810    -213.697     233.452
  H      266.879    -213.821     232.482
  H      267.364    -212.540     237.024
  H      267.273    -213.786     235.755
  H      265.776    -213.155     236.507
  H      263.081    -212.270     240.845
  H      263.546    -210.626     240.480
  H      263.965    -211.917     239.380

 3  4  5  6  7  8  9  10  11  12  13  23  28  29  30  31  32 0
 6-311+G(2d,p)
 ****
 33  34 0
 6-311+G(2d,p)
 ****
 1  2  14  15  16  17  18  19  20  21  22  24  25  26  27 0
 3-21G
 ****
 35  36  37  38  39  40  41  42  43  44  45 0
 3-21G
 ****


