%nproc=1
%NoSave
%Mem=1900MB
#P OB98/GEN NMR

erre ene a

0 1
  C     -149.196     187.642    -242.702
  O     -149.312     186.918    -243.938
  P     -148.688     187.553    -245.277
  C     -151.102     187.943    -246.207
  O     -149.786     187.466    -246.444
  C     -151.816     188.205    -247.539
  O     -151.104     189.196    -248.311
  C     -151.909     186.988    -248.452
  O     -152.916     186.082    -248.031
  C     -152.205     187.640    -249.796
  O     -153.609     187.934    -249.925
  C     -151.386     188.945    -249.702
  N     -150.157     188.890    -250.492
  C     -150.314     188.868    -251.875
  O     -151.408     188.833    -252.430
  N     -149.150     188.854    -252.605
  C     -147.886     188.788    -252.098
  O     -146.888     188.758    -252.806
  C     -147.791     188.732    -250.630
  C     -148.911     188.782    -249.913
  O     -147.642     186.419    -245.724
  O     -148.005     188.869    -245.113
  H     -154.075     187.074    -249.923
  H     -146.914     186.832    -246.227
  H     -149.245     188.865    -253.609
  H     -146.805     188.658    -250.193
  H     -148.857     188.741    -248.826
  H     -151.986     189.793    -250.052
  H     -151.932     187.002    -250.644
  H     -150.935     186.485    -248.503
  H     -152.820     188.597    -247.318
  H     -151.054     188.876    -245.643
  H     -151.649     187.201    -245.616
  P     -152.467     184.931    -247.004
  C     -152.535     183.204    -248.967
  O     -152.958     183.561    -247.667
  O     -153.477     185.194    -245.791
  O     -151.023     185.006    -246.634
  H     -154.345     185.517    -246.096
  H     -151.521     183.558    -249.169
  H     -153.225     183.631    -249.701
  H     -152.552     182.113    -249.057
  H     -149.660     187.083    -241.916
  H     -149.679     188.592    -242.798
  H     -148.162     187.790    -242.471

 3  4  5  6  7  8  9  10  11  12  13  23  28  29  30  31  32 0
 6-311+G(2d,p)
 ****
 33  34 0
 6-311+G(2d,p)
 ****
 1  2  14  15  16  17  18  19  20  21  22  24  25  26 0
 3-21G
 ****
 27  35  36  37  38  39  40  41  42  43  44  45 0
 3-21G
 ****


