%nproc=1
%NoSave
%Mem=1900MB
#P OB98/GEN NMR

erre ene a

0 1
  C       21.088       8.876     142.300
  O       21.800       8.810     143.517
  H       21.426       9.754     141.746
  H       20.018       8.978     142.502
  H       21.264       7.988     141.690
  P       21.740       7.460     144.374
  C       19.908       5.813     145.144
  O       20.199       7.022     144.458
  C       18.423       5.454     145.006
  O       17.654       6.276     145.920
  C       17.903       5.749     143.595
  O       16.816       4.901     143.236
  C       17.396       7.177     143.717
  O       16.422       7.512     142.729
  C       16.854       7.185     145.145
  N       14.231      11.427     146.196
  C       13.897      10.378     145.363
  N       12.704      10.471     144.729
  N       14.670       9.345     145.152
  C       15.859       9.420     145.794
  C       16.314      10.417     146.627
  C       15.435      11.539     146.880
  O       15.692      12.506     147.590
  N       17.579      10.148     147.086
  C       17.892       8.995     146.531
  N       16.870       8.500     145.757
  O       22.041       7.949     145.870
  O       22.688       6.381     143.948
  H       16.768       7.216     141.866
  H       22.371       7.208     146.409
  H       13.588      12.184     146.345
  H       18.829       8.472     146.667
  H       15.819       6.823     145.168
  H       18.242       7.854     143.578
  H       12.179      11.332     144.711
  H       18.678       5.673     142.837
  H       12.587       9.886     143.897
  H       18.259       4.412     145.303
  H       20.170       5.970     146.193
  H       20.537       5.003     144.771
  P       17.126       3.575     142.391
  C       17.689       3.018     139.866
  O       17.531       3.967     140.897
  O       15.695       2.884     142.231
  O       18.124       2.658     143.027
  H       15.678       2.026     142.695
  H       17.961       3.518     138.960
  H       16.768       2.492     139.721
  H       18.458       2.324     140.135

 6  7  8  9  10  11  12  13  14  15  26  29  33  34 0
 6-311+G(2d,p)
 ****
 36  38  39  40  41 0
 6-311+G(2d,p)
 ****
 1  2  3  4  5  16  17  18  19  20  21  22  23  24  25 0
 3-21G
 ****
 27  28  30  31  32  35  37  42  43  44  45  46  47 0
 3-21G
 ****
 48  49 0
 3-21G
 ****


