%nproc=1
%NoSave
%Mem=1900MB
#P OB98/GEN NMR

erre ene a

0 1
  C     -210.308      41.690    -239.932
  O     -211.381      42.605    -239.766
  P     -211.864      42.916    -238.264
  C     -213.728      41.113    -238.356
  O     -212.523      41.553    -237.736
  C     -214.251      39.854    -237.677
  O     -213.203      38.867    -237.607
  C     -214.717      40.053    -236.243
  O     -216.031      40.590    -236.184
  C     -214.686      38.624    -235.721
  O     -215.885      37.937    -236.121
  C     -213.466      38.035    -236.447
  N     -209.850      35.056    -234.525
  C     -210.915      34.741    -235.343
  N     -211.019      33.448    -235.724
  N     -211.804      35.608    -235.748
  C     -211.553      36.869    -235.321
  C     -210.532      37.308    -234.506
  C     -209.585      36.324    -234.022
  O     -208.660      36.537    -233.243
  N     -210.601      38.661    -234.305
  C     -211.635      39.049    -235.023
  N     -212.265      37.990    -235.634
  O     -213.125      43.877    -238.482
  O     -210.834      43.539    -237.385
  H     -215.690      36.981    -236.097
  H     -213.256      44.436    -237.692
  H     -209.187      34.351    -234.255
  H     -211.962      40.073    -235.128
  H     -213.671      37.027    -236.819
  H     -214.633      38.569    -234.629
  H     -210.298      32.761    -235.553
  H     -214.007      40.666    -235.679
  H     -211.773      33.203    -236.355
  H     -215.060      39.443    -238.293
  H     -213.532      40.895    -239.410
  H     -214.469      41.917    -238.298
  P     -216.355      41.560    -234.942
  C     -217.025      39.444    -233.592
  O     -216.252      40.629    -233.642
  O     -217.921      41.839    -235.098
  O     -215.553      42.816    -234.922
  H     -218.154      42.695    -234.683
  H     -217.101      38.973    -234.574
  H     -218.026      39.683    -233.220
  H     -216.551      38.743    -232.901
  H     -210.093      41.578    -240.974
  H     -210.582      40.741    -239.520
  H     -209.441      42.062    -239.427

 3  4  5  6  7  8  9  10  11  12  23  26  30  31  33  0
 6-311+G(2d,p)
 ****
 35  36  37  38 0
 6-311+G(2d,p)
 ****
 1  2  13  14  15  16  17  18  19  20  21  22  24  25  27  28  29 0
 3-21G
 ****
 32  34  39  40  41  42  43  44  45  46  47  48  49 0
 3-21G
 ****


