%nproc=1
%NoSave
%Mem=1900MB
#P OB98/GEN NMR

erre ene a

0 1
  C      -97.686     145.837     235.217
  O      -96.412     145.741     235.824
  H      -98.121     146.808     235.470
  H      -98.351     145.049     235.579
  H      -97.588     145.771     234.130
  P      -95.687     144.309     235.836
  C      -93.357     145.060     235.025
  O      -94.137     144.619     236.133
  C      -91.873     145.130     235.385
  O      -91.606     146.270     236.231
  C      -91.367     143.934     236.174
  O      -91.356     142.718     235.460
  C      -90.066     144.468     236.753
  O      -88.984     144.390     235.825
  C      -90.434     145.950     237.014
  N      -90.641     146.228     238.430
  C      -89.552     146.756     239.114
  O      -88.457     146.965     238.590
  N      -89.747     147.010     240.443
  C      -90.886     146.748     241.148
  O      -90.990     146.979     242.347
  C      -91.991     146.154     240.382
  C      -91.823     145.926     239.076
  O      -95.913     143.457     234.623
  O      -96.188     143.637     237.198
  H      -89.085     145.139     235.208
  H      -96.010     142.664     237.202
  H      -88.974     147.407     240.953
  H      -92.905     145.921     240.911
  H      -92.626     145.489     238.488
  H      -89.632     146.609     236.654
  H      -89.763     143.927     237.652
  H      -92.041     143.773     237.025
  H      -91.305     145.266     234.458
  H      -93.708     146.059     234.746
  H      -93.509     144.382     234.179
  P      -92.308     141.485     235.796
  C      -93.600     140.585     233.709
  O      -92.415     140.554     234.495
  O      -93.563     141.791     236.545
  O      -91.365     140.600     236.763
  H      -91.949     140.171     237.419
  H      -93.500     139.908     232.887
  H      -93.756     141.576     233.338
  H      -94.435     140.294     234.311

 6  7  8  9  10  11  12  13  14  15  16  26  31  32  33  34  35 0
 6-311+G(2d,p)
 ****
 36  37 0
 6-311+G(2d,p)
 ****
 1  2  3  4  5  17  18  19  20  21  22  23  24  25 0
 3-21G
 ****
 27  28  29  30  38  39  40  41  42  43  44  45 0
 3-21G
 ****


