%nproc=1
%NoSave
%Mem=1900MB
#P OB98/GEN NMR

erre ene a

0 1
  C     -378.789    -235.785     168.551
  O     -378.101    -236.524     169.543
  H     -379.860    -235.819     168.768
  H     -378.613    -236.220     167.562
  H     -378.456    -234.742     168.563
  P     -376.511    -236.650     169.382
  C     -374.943    -238.329     168.163
  O     -376.250    -237.776     168.268
  C     -374.875    -239.240     166.941
  O     -374.562    -238.457     165.764
  C     -373.781    -240.302     167.022
  O     -374.160    -241.399     167.838
  C     -373.638    -240.680     165.557
  O     -374.622    -241.649     165.161
  C     -373.873    -239.331     164.840
  N     -372.633    -238.743     164.350
  C     -372.099    -239.319     163.198
  O     -372.628    -240.260     162.615
  N     -370.915    -238.792     162.756
  C     -370.201    -237.799     163.364
  O     -369.105    -237.424     162.962
  C     -370.819    -237.219     164.577
  C     -371.978    -237.715     165.008
  O     -376.064    -237.353     170.750
  O     -375.796    -235.357     169.151
  H     -375.678    -236.690     171.353
  H     -374.528    -241.748     164.188
  H     -370.512    -239.207     161.930
  H     -370.277    -236.425     165.084
  H     -372.435    -237.320     165.911
  H     -374.544    -239.471     163.980
  H     -372.659    -241.120     165.343
  H     -372.842    -239.858     167.365
  H     -375.856    -239.707     166.792
  H     -374.726    -238.920     169.060
  H     -374.214    -237.511     168.089
  P     -373.014    -242.390     168.364
  C     -371.765    -244.419     167.262
  O     -372.512    -243.232     167.094
  O     -373.882    -243.440     169.213
  O     -371.931    -241.700     169.127
  H     -374.752    -243.616     168.826
  H     -371.527    -244.829     166.303
  H     -372.341    -245.127     167.820
  H     -370.861    -244.200     167.790

 6  7  8  9  10  11  12  13  14  15  16  27  31  32  33  34  35 0
 6-311+G(2d,p)
 ****
 36  37 0
 6-311+G(2d,p)
 ****
 1  2  3  4  5  17  18  19  20  21  22  23  24  25 0
 3-21G
 ****
 26  28  29  30  38  39  40  41  42  43  44  45 0
 3-21G
 ****


