%nproc=1
%NoSave
%Mem=1900MB
#P OB98/GEN NMR

erre ene a

0 1
  C      -80.948     552.740      23.193
  O      -80.487     553.418      24.369
  P      -79.002     553.074      24.860
  C      -79.540     554.078      27.192
  O      -78.645     554.049      26.085
  C      -79.659     555.499      27.752
  O      -79.964     556.462      26.734
  C      -80.753     555.639      28.805
  O      -80.286     555.153      30.052
  C      -80.994     557.145      28.803
  O      -80.042     557.834      29.640
  C      -80.771     557.520      27.327
  N      -83.813     560.884      25.059
  C      -82.723     561.088      25.895
  N      -82.384     562.380      26.137
  N      -82.030     560.135      26.435
  C      -82.482     558.889      26.099
  C      -83.527     558.560      25.257
  C      -84.289     559.643      24.670
  O      -85.235     559.519      23.906
  N      -83.644     557.204      25.116
  C      -82.756     556.711      25.964
  N      -81.985     557.699      26.543
  O      -78.080     553.606      23.661
  O      -78.786     551.619      25.119
  H      -79.149     557.501      29.462
  H      -77.683     552.846      23.186
  H      -84.310     561.674      24.671
  H      -82.609     555.667      26.174
  H      -80.203     558.448      27.227
  H      -81.983     557.400      29.182
  H      -82.875     563.177      25.754
  H      -81.660     555.106      28.483
  H      -81.590     562.550      26.738
  H      -78.678     555.754      28.190
  H      -79.188     553.403      27.972
  H      -80.513     553.699      26.869
  P      -81.359     554.476      31.042
  C      -81.463     555.891      33.215
  O      -80.901     554.774      32.535
  O      -81.076     552.908      30.859
  O      -82.779     554.800      30.721
  H      -81.917     552.422      30.773
  H      -81.491     555.683      34.282
  H      -82.476     556.106      32.860
  H      -80.831     556.775      33.043
  H      -81.946     553.053      22.969
  H      -80.935     551.684      23.362
  H      -80.307     552.978      22.370

 3  4  5  6  7  8  9  10  11  12  23  26  30  31 0
 6-311+G(2d,p)
 ****
 33  35  36  37  38 0
 6-311+G(2d,p)
 ****
 1  2  13  14  15  16  17  18  19  20  21  22  24  25 0
 3-21G
 ****
 27  28  29  32  34  39  40  41  42  43  44  45  46  47  48  49 0
 3-21G
 ****


