%nproc=1
%NoSave
%Mem=1900MB
#P OB98/GEN NMR

erre ene a

0 1
  C     -147.043    -304.969       6.665
  O     -146.701    -306.309       6.360
  H     -146.783    -304.338       5.811
  H     -146.477    -304.637       7.537
  H     -148.118    -304.881       6.859
  P     -147.293    -307.446       7.324
  C     -145.377    -307.001       9.021
  O     -146.068    -307.959       8.231
  C     -144.721    -307.679      10.223
  O     -143.890    -306.738      10.940
  C     -145.710    -308.242      11.239
  O     -146.171    -309.534      10.860
  C     -144.823    -308.328      12.476
  O     -143.951    -309.475      12.373
  C     -143.999    -307.037      12.362
  N     -143.326    -303.574      16.012
  C     -142.533    -304.652      15.647
  N     -141.399    -304.825      16.366
  N     -142.818    -305.474      14.673
  C     -143.995    -305.182      14.058
  C     -144.870    -304.156      14.333
  C     -144.530    -303.242      15.401
  O     -145.195    -302.267      15.749
  N     -145.952    -304.185      13.499
  C     -145.748    -305.241      12.733
  N     -144.574    -305.887      13.040
  O     -147.552    -308.666       6.315
  O     -148.535    -307.076       8.059
  H     -144.510    -310.270      12.466
  H     -148.506    -308.711       6.116
  H     -143.062    -302.975      16.775
  H     -146.411    -305.575      11.949
  H     -142.982    -307.159      12.747
  H     -145.395    -308.443      13.398
  H     -141.129    -304.242      17.142
  H     -146.543    -307.554      11.433
  H     -140.802    -305.608      16.115
  H     -144.062    -308.469       9.843
  H     -146.092    -306.250       9.371
  H     -144.616    -306.516       8.406
  P     -147.754    -309.747      10.683
  C     -147.969    -310.612      13.116
  O     -148.199    -310.873      11.743
  O     -147.854    -310.501       9.270
  O     -148.573    -308.500      10.688
  H     -148.265    -309.913       8.610
  H     -148.312    -311.441      13.699
  H     -148.500    -309.729      13.405
  H     -146.922    -310.469      13.281

 6  7  8  9  10  11  12  13  14  15  26  29  33  34 0
 6-311+G(2d,p)
 ****
 36  38  39  40  41 0
 6-311+G(2d,p)
 ****
 1  2  3  4  5  16  17  18  19  20  21  22  23  24  25 0
 3-21G
 ****
 27  28  30  31  32  35  37  42  43  44  45  46  47 0
 3-21G
 ****
 48  49 0
 3-21G
 ****


