%nproc=1
%NoSave
%Mem=1900MB
#P OB98/GEN NMR

erre ene a

0 1
  C     1413.373    1147.755    -208.813
  O     1413.554    1149.113    -208.488
  H     1412.747    1147.291    -208.042
  H     1414.338    1147.243    -208.832
  H     1412.879    1147.654    -209.783
  P     1414.432    1150.001    -209.505
  C     1412.149    1150.565    -210.623
  O     1413.501    1150.177    -210.808
  C     1411.346    1150.302    -211.897
  O     1411.703    1151.280    -212.895
  C     1411.591    1148.905    -212.497
  O     1410.342    1148.345    -212.915
  C     1412.477    1149.176    -213.691
  O     1412.355    1148.174    -214.694
  C     1412.055    1150.586    -214.113
  N     1413.108    1151.296    -214.836
  C     1412.784    1151.745    -216.129
  O     1411.664    1151.539    -216.600
  N     1413.752    1152.377    -216.869
  C     1414.944    1152.502    -216.386
  N     1415.862    1153.114    -217.179
  C     1415.342    1151.998    -215.061
  C     1414.379    1151.417    -214.340
  O     1415.568    1148.983    -209.985
  O     1414.961    1151.283    -208.942
  H     1412.771    1147.354    -214.352
  H     1416.296    1149.451    -210.445
  H     1416.363    1152.101    -214.709
  H     1414.577    1151.008    -213.351
  H     1411.156    1150.544    -214.747
  H     1413.531    1149.190    -213.362
  H     1412.064    1148.224    -211.797
  H     1410.271    1150.455    -211.672
  H     1415.562    1153.442    -218.091
  H     1412.112    1151.630    -210.381
  H     1416.837    1153.236    -216.920
  H     1411.716    1149.989    -209.790
  P     1409.968    1146.914    -212.278
  C     1407.624    1147.924    -211.840
  O     1408.671    1147.129    -211.337
  O     1411.154    1146.650    -211.237
  O     1409.843    1145.832    -213.296
  H     1411.815    1146.058    -211.631
  H     1406.838    1147.979    -211.116
  H     1407.248    1147.489    -212.742
  H     1407.990    1148.909    -212.044

 6  7  8  9  10  11  12  13  14  15  16  26  30  31  32  33  35 0
 6-311+G(2d,p)
 ****
 37  38 0
 6-311+G(2d,p)
 ****
 1  2  3  4  5  17  18  19  20  21  22  23  24  25 0
 3-21G
 ****
 27  28  29  34  36  39  40  41  42  43  44  45  46 0
 3-21G
 ****


