%nproc=1
%NoSave
%Mem=1900MB
#P OB98/GEN NMR

erre ene a

0 1
  C      567.107     303.905    1133.034
  O      567.854     304.100    1131.856
  H      567.520     303.059    1133.587
  H      566.067     303.675    1132.772
  H      567.129     304.790    1133.684
  P      567.642     305.450    1131.015
  C      565.754     304.691    1129.432
  O      566.103     305.474    1130.573
  C      564.683     305.399    1128.583
  O      563.477     305.560    1129.396
  C      565.111     306.809    1128.096
  O      564.464     307.027    1126.833
  C      564.499     307.702    1129.169
  O      564.417     309.050    1128.726
  C      563.176     306.985    1129.443
  N      562.572     307.367    1130.696
  C      561.370     308.065    1130.624
  O      560.819     308.380    1129.544
  N      560.799     308.433    1131.799
  C      561.353     308.244    1133.048
  O      560.819     308.631    1134.071
  C      562.648     307.543    1133.064
  C      563.181     307.143    1131.901
  O      568.606     305.684    1129.900
  O      567.704     306.623    1132.112
  H      565.250     309.513    1128.971
  H      568.041     307.438    1131.712
  H      559.926     308.940    1131.756
  H      563.097     307.374    1134.030
  H      564.139     306.610    1131.903
  H      562.458     307.193    1128.629
  H      565.124     307.689    1130.065
  H      566.187     306.922    1127.998
  H      564.418     304.744    1127.731
  H      565.364     303.723    1129.778
  H      566.644     304.508    1128.825
  P      565.123     306.583    1125.438
  C      567.097     308.225    1125.701
  O      566.712     306.876    1125.500
  O      564.457     307.157    1124.237
  O      565.041     304.986    1125.442
  H      564.989     304.660    1124.532
  H      568.165     308.292    1125.724
  H      566.698     308.575    1126.630
  H      566.719     308.827    1124.901

 6  7  8  9  10  11  12  13  14  15  16  26  31  32  33  34  35 0
 6-311+G(2d,p)
 ****
 36  37 0
 6-311+G(2d,p)
 ****
 1  2  3  4  5  17  18  19  20  21  22  23  24  25 0
 3-21G
 ****
 27  28  29  30  38  39  40  41  42  43  44  45 0
 3-21G
 ****


