%nproc=1
%NoSave
%Mem=1900MB
#P OB98/GEN NMR

erre ene a

0 1
  C     -226.143    -639.223     -73.383
  O     -227.082    -638.433     -74.086
  P     -227.418    -638.769     -75.614
  C     -229.487    -640.181     -75.053
  O     -228.197    -640.171     -75.650
  C     -230.461    -640.986     -75.918
  O     -230.790    -640.256     -77.116
  C     -229.909    -642.321     -76.395
  O     -229.934    -643.277     -75.351
  C     -230.839    -642.628     -77.562
  O     -232.072    -643.194     -77.092
  C     -231.083    -641.225     -78.145
  N     -230.982    -641.407     -83.240
  C     -231.867    -641.888     -82.340
  N     -231.801    -641.836     -80.990
  C     -230.673    -641.222     -80.600
  C     -229.662    -640.712     -81.398
  C     -229.860    -640.798     -82.787
  N     -229.000    -640.254     -83.716
  N     -228.647    -640.188     -80.623
  C     -229.036    -640.394     -79.378
  N     -230.281    -640.955     -79.316
  O     -226.268    -638.655     -76.561
  O     -228.562    -637.712     -75.989
  H     -231.873    -644.096     -76.769
  H     -228.255    -637.148     -76.720
  H     -232.742    -642.378     -82.754
  H     -228.461    -640.134     -78.493
  H     -232.132    -641.082     -78.428
  H     -230.403    -643.339     -78.275
  H     -228.886    -642.190     -76.773
  H     -231.385    -641.127     -75.345
  H     -229.838    -639.150     -74.967
  H     -229.307    -640.245     -84.674
  H     -228.335    -639.550     -83.406
  H     -229.423    -640.618     -74.056
  P     -229.064    -644.615     -75.477
  C     -227.274    -644.126     -73.711
  O     -227.553    -644.239     -75.095
  O     -229.225    -645.370     -76.758
  O     -229.538    -645.490     -74.225
  H     -229.493    -646.441     -74.455
  H     -227.649    -643.165     -73.335
  H     -226.192    -644.169     -73.572
  H     -227.738    -644.943     -73.149
  H     -226.046    -638.856     -72.383
  H     -225.194    -639.172     -73.876
  H     -226.479    -640.239     -73.359

 3  4  5  6  7  8  9  10  11  12  22  25  29  30  31  32 0
 6-311+G(2d,p)
 ****
 33  36  37 0
 6-311+G(2d,p)
 ****
 1  2  13  14  15  16  17  18  19  20  21  23  24  26 0
 3-21G
 ****
 27  28  34  35  38  39  40  41  42  43  44  45  46  47  48 0
 3-21G
 ****


