%nproc=1
%NoSave
%Mem=1900MB
#P OB98/GEN NMR

erre ene a

0 1
  C      332.331     870.916    -368.322
  O      333.471     871.659    -368.712
  H      331.710     871.510    -367.651
  H      331.747     870.667    -369.219
  H      332.632     869.983    -367.834
  P      334.453     872.148    -367.541
  C      336.858     873.117    -367.622
  O      335.565     873.086    -368.217
  C      337.582     874.403    -368.014
  O      338.185     874.214    -369.323
  C      336.682     875.654    -368.080
  O      337.174     876.669    -367.182
  C      336.835     876.160    -369.517
  O      336.915     877.579    -369.605
  C      338.122     875.485    -370.000
  N      339.795     877.442    -374.388
  C      340.239     877.587    -373.115
  N      339.817     876.952    -372.002
  C      338.846     876.080    -372.305
  C      338.305     875.809    -373.551
  C      338.795     876.554    -374.627
  N      338.301     876.455    -375.918
  N      337.306     874.854    -373.454
  C      337.225     874.581    -372.176
  N      338.113     875.306    -371.434
  O      335.258     870.815    -367.158
  O      333.761     872.738    -366.352
  H      337.104     877.786    -370.538
  H      335.262     870.709    -366.187
  H      341.039     878.305    -372.974
  H      336.507     873.895    -371.712
  H      339.017     876.063    -369.717
  H      335.954     875.814    -370.091
  H      335.634     875.430    -367.846
  H      338.402     874.569    -367.311
  H      337.447     872.255    -367.977
  H      338.647     877.118    -376.605
  H      337.497     875.882    -376.072
  H      336.755     873.042    -366.539
  P      336.733     876.547    -365.645
  C      337.961     876.858    -363.376
  O      337.900     877.191    -364.760
  O      336.857     874.975    -365.351
  O      335.351     877.057    -365.368
  H      336.252     874.721    -364.635
  H      338.789     877.363    -362.924
  H      338.086     875.801    -363.269
  H      337.054     877.160    -362.896

 6  7  8  9  10  11  12  13  14  15  25  28  32  33  34  35 0
 6-311+G(2d,p)
 ****
 36  39  40 0
 6-311+G(2d,p)
 ****
 1  2  3  4  5  16  17  18  19  20  21  22  23  24 0
 3-21G
 ****
 26  27  29  30  31  37  38  41  42  43  44  45  46  47  48 0
 3-21G
 ****


