%nproc=1
%NoSave
%Mem=1900MB
#P OB98/GEN NMR

erre ene a

0 1
  C     -200.537    -560.823    -466.826
  O     -200.077    -562.162    -466.802
  H     -199.674    -560.154    -466.762
  H     -201.195    -560.634    -465.969
  H     -201.071    -560.627    -467.761
  P     -201.208    -563.302    -466.823
  C     -200.291    -564.206    -464.569
  O     -201.426    -563.752    -465.295
  C     -200.706    -565.218    -463.503
  O     -199.548    -565.891    -462.960
  C     -201.458    -564.612    -462.322
  O     -202.836    -564.464    -462.617
  C     -201.199    -565.652    -461.241
  O     -202.082    -566.788    -461.393
  C     -199.741    -566.055    -461.527
  N     -197.584    -565.347    -457.010
  C     -198.639    -566.161    -457.378
  N     -199.222    -566.879    -456.394
  N     -199.086    -566.264    -458.602
  C     -198.446    -565.452    -459.479
  C     -197.393    -564.596    -459.240
  C     -196.867    -564.534    -457.887
  O     -195.884    -563.898    -457.519
  N     -197.004    -563.949    -460.388
  C     -197.837    -564.390    -461.310
  N     -198.739    -565.299    -460.806
  O     -200.454    -564.561    -467.474
  O     -202.447    -562.963    -467.582
  H     -201.869    -567.246    -462.223
  H     -201.083    -565.036    -468.052
  H     -197.258    -565.335    -456.062
  H     -197.834    -564.094    -462.350
  H     -199.563    -567.112    -461.297
  H     -201.380    -565.251    -460.241
  H     -199.121    -566.631    -455.424
  H     -201.010    -563.655    -462.019
  H     -200.042    -567.416    -456.652
  H     -201.319    -565.982    -463.996
  H     -199.813    -563.347    -464.093
  H     -199.584    -564.672    -465.265
  P     -203.564    -563.102    -462.179
  C     -204.545    -564.104    -459.990
  O     -203.713    -563.115    -460.577
  O     -205.065    -563.322    -462.699
  O     -202.966    -561.867    -462.762
  H     -205.220    -562.779    -463.496
  H     -204.544    -563.986    -458.927
  H     -204.175    -565.076    -460.241
  H     -205.543    -563.996    -460.360

 6  7  8  9  10  11  12  13  14  15  26  29  33  34 0
 6-311+G(2d,p)
 ****
 36  38  39  40  41 0
 6-311+G(2d,p)
 ****
 1  2  3  4  5  16  17  18  19  20  21  22  23  24  25 0
 3-21G
 ****
 27  28  30  31  32  35  37  42  43  44  45  46  47 0
 3-21G
 ****
 48  49 0
 3-21G
 ****


