%nproc=1
%NoSave
%Mem=1900MB
#P OB98/GEN NMR

erre ene a

0 1
  C      618.497    -207.291     267.871
  O      619.740    -207.220     268.565
  P      620.147    -208.461     269.494
  C      621.885    -209.450     267.802
  O      620.695    -209.625     268.541
  C      622.292    -210.754     267.085
  O      622.246    -211.835     268.039
  C      621.375    -211.182     265.946
  O      622.072    -212.115     265.117
  C      620.267    -211.892     266.690
  O      619.499    -212.734     265.821
  C      621.036    -212.614     267.816
  N      620.267    -212.736     269.074
  C      619.331    -213.755     269.181
  O      619.097    -214.577     268.293
  N      618.620    -213.802     270.347
  C      618.773    -212.968     271.416
  O      618.047    -212.997     272.403
  C      619.874    -211.999     271.305
  C      620.549    -211.918     270.159
  O      618.735    -209.020     270.019
  O      621.061    -208.107     270.617
  H      620.147    -213.256     265.305
  H      618.607    -208.770     270.957
  H      617.888    -214.496     270.417
  H      620.076    -211.363     272.164
  H      621.355    -211.188     270.050
  H      621.322    -213.630     267.510
  H      619.581    -211.154     267.113
  H      620.996    -210.354     265.330
  H      623.324    -210.665     266.738
  H      622.687    -209.123     268.466
  H      621.751    -208.655     267.061
  P      622.596    -211.612     263.687
  C      625.057    -211.949     264.350
  O      624.068    -211.032     263.919
  O      621.654    -210.745     262.922
  O      622.885    -212.994     262.913
  H      622.907    -212.827     261.956
  H      626.029    -211.623     263.985
  H      624.857    -212.956     263.975
  H      625.072    -211.967     265.443
  H      618.359    -206.400     267.295
  H      617.699    -207.386     268.577
  H      618.500    -208.140     267.220

 3  4  5  6  7  8  9  10  11  12  13  23  28  29  30  31  32 0
 6-311+G(2d,p)
 ****
 33  34 0
 6-311+G(2d,p)
 ****
 1  2  14  15  16  17  18  19  20  21  22  24  25  26  27 0
 3-21G
 ****
 35  36  37  38  39  40  41  42  43  44  45 0
 3-21G
 ****


