%nproc=1
%NoSave
%Mem=1900MB
#P OB98/GEN NMR

erre ene a

0 1
  C        9.739      15.022     -53.707
  O        9.206      16.184     -54.302
  H        9.009      14.214     -53.804
  H        9.924      15.204     -52.645
  H       10.669      14.714     -54.193
  P       10.201      17.372     -54.699
  C        9.811      18.427     -52.376
  O       10.771      18.008     -53.338
  C       10.471      19.027     -51.134
  O       11.505      18.145     -50.644
  C       11.159      20.360     -51.429
  O       10.315      21.497     -51.397
  C       12.204      20.423     -50.319
  O       11.642      20.973     -49.116
  C       12.572      18.952     -50.116
  N       17.617      18.323     -49.617
  C       16.704      18.791     -48.693
  N       17.209      19.197     -47.507
  N       15.420      18.869     -48.924
  C       15.073      18.519     -50.185
  C       15.890      18.054     -51.191
  C       17.304      17.919     -50.907
  O       18.156      17.517     -51.693
  N       15.178      17.796     -52.339
  C       13.950      18.175     -52.049
  N       13.831      18.596     -50.746
  O        9.220      18.523     -55.233
  O       11.235      17.026     -55.727
  H       12.349      21.036     -48.448
  H        9.693      19.097     -55.862
  H       18.590      18.258     -49.375
  H       13.109      18.140     -52.733
  H       12.663      18.704     -49.051
  H       13.048      21.063     -50.595
  H       18.199      19.265     -47.327
  H       11.681      20.316     -52.390
  H       16.621      19.785     -46.914
  H        9.723      19.123     -50.339
  H        9.235      17.541     -52.101
  H        9.114      19.142     -52.822
  P       10.457      22.632     -52.517
  C       12.143      23.870     -50.968
  O       11.853      23.374     -52.257
  O        9.362      23.710     -52.069
  O       10.239      22.166     -53.915
  H        8.534      23.575     -52.567
  H       13.108      24.332     -50.972
  H       12.137      23.063     -50.266
  H       11.404      24.591     -50.689

 6  7  8  9  10  11  12  13  14  15  26  29  33  34 0
 6-311+G(2d,p)
 ****
 36  38  39  40  41 0
 6-311+G(2d,p)
 ****
 1  2  3  4  5  16  17  18  19  20  21  22  23  24  25 0
 3-21G
 ****
 27  28  30  31  32  35  37  42  43  44  45  46  47 0
 3-21G
 ****
 48  49 0
 3-21G
 ****


