%nproc=1
%NoSave
%Mem=1900MB
#P OB98/GEN NMR

erre ene a

0 1
  C     -299.461    -164.234    -515.844
  O     -299.303    -162.848    -516.152
  P     -300.388    -161.816    -515.582
  C     -300.794    -160.893    -517.963
  O     -300.504    -160.571    -516.606
  C     -300.066    -159.920    -518.910
  O     -298.631    -160.049    -518.683
  C     -300.270    -160.196    -520.405
  O     -301.378    -159.572    -521.062
  C     -299.013    -159.583    -521.000
  O     -299.190    -158.167    -521.170
  C     -297.948    -159.841    -519.937
  N     -294.750    -161.923    -523.367
  C     -295.414    -160.743    -523.341
  N     -296.248    -160.268    -522.395
  C     -296.357    -161.134    -521.378
  C     -295.732    -162.366    -521.256
  C     -294.901    -162.765    -522.311
  N     -294.227    -163.966    -522.333
  N     -296.090    -162.980    -520.064
  C     -296.933    -162.137    -519.499
  N     -297.109    -161.000    -520.233
  O     -300.245    -161.448    -514.143
  O     -301.771    -162.592    -515.839
  H     -299.916    -158.054    -521.822
  H     -302.376    -162.411    -515.092
  H     -295.260    -160.105    -524.211
  H     -297.430    -162.306    -518.549
  H     -297.267    -158.990    -519.801
  H     -298.776    -159.990    -521.996
  H     -300.293    -161.281    -520.607
  H     -300.353    -158.897    -518.673
  H     -301.874    -160.820    -518.129
  H     -293.681    -164.191    -523.151
  H     -294.373    -164.628    -521.589
  H     -300.514    -161.933    -518.127
  P     -302.641    -160.420    -521.558
  C     -302.257    -160.080    -524.116
  O     -303.035    -159.807    -522.991
  O     -303.764    -160.517    -520.588
  O     -301.981    -161.827    -521.952
  H     -301.392    -161.791    -522.725
  H     -302.798    -159.758    -525.018
  H     -302.058    -161.157    -524.208
  H     -301.314    -159.521    -524.065
  H     -298.665    -164.792    -516.291
  H     -300.398    -164.580    -516.227
  H     -299.438    -164.368    -514.783

 3  4  5  6  7  8  9  10  11  12  22  25  29  30  31  32 0
 6-311+G(2d,p)
 ****
 33  36  37 0
 6-311+G(2d,p)
 ****
 1  2  13  14  15  16  17  18  19  20  21  23  24  26 0
 3-21G
 ****
 27  28  34  35  38  39  40  41  42  43  44  45  46  47  48 0
 3-21G
 ****


