%nproc=1
%NoSave
%Mem=1900MB
#P OB98/GEN NMR

erre ene a

0 1
  C      -56.814      36.692      24.977
  O      -56.814      37.993      24.425
  H      -57.463      36.687      25.857
  H      -55.805      36.414      25.289
  H      -57.197      35.965      24.256
  P      -56.015      38.255      23.060
  C      -54.391      39.872      24.225
  O      -55.347      39.710      23.188
  C      -54.677      41.140      25.026
  O      -55.940      40.978      25.720
  C      -53.604      41.462      26.071
  O      -53.432      42.878      26.121
  C      -54.220      40.978      27.369
  O      -53.711      41.675      28.505
  C      -55.707      41.220      27.121
  N      -59.496      41.124      30.460
  C      -58.952      42.182      29.759
  N      -59.475      43.403      29.998
  N      -57.976      42.055      28.899
  C      -57.557      40.775      28.748
  C      -58.012      39.644      29.383
  C      -59.085      39.800      30.343
  O      -59.598      38.904      31.002
  N      -57.315      38.533      28.979
  C      -56.439      38.993      28.105
  N      -56.539      40.349      27.938
  O      -56.801      38.044      21.807
  O      -54.761      37.266      23.149
  H      -54.171      41.314      29.293
  H      -54.917      36.463      22.618
  H      -60.241      41.279      31.117
  H      -55.710      38.394      27.575
  H      -56.007      42.250      27.350
  H      -54.013      39.908      27.501
  H      -60.239      43.574      30.633
  H      -52.646      40.977      25.863
  H      -59.109      44.192      29.477
  H      -54.805      41.973      24.325
  H      -53.397      39.941      23.768
  H      -54.417      38.997      24.884
  P      -51.944      43.475      26.135
  C      -52.113      45.285      27.959
  O      -52.026      45.018      26.564
  O      -51.124      43.194      24.920
  O      -51.300      42.789      27.437
  H      -50.340      42.683      27.294
  H      -52.162      46.342      28.117
  H      -51.250      44.890      28.452
  H      -52.993      44.824      28.356

 6  7  8  9  10  11  12  13  14  15  26  29  33  34 0
 6-311+G(2d,p)
 ****
 36  38  39  40  41 0
 6-311+G(2d,p)
 ****
 1  2  3  4  5  16  17  18  19  20  21  22  23  24  25 0
 3-21G
 ****
 27  28  30  31  32  35  37  42  43  44  45  46  47 0
 3-21G
 ****
 48  49 0
 3-21G
 ****


