%nproc=1
%NoSave
%Mem=1900MB
#P OB98/GEN NMR

erre ene a

0 1
  C     -625.158    -402.606     381.296
  O     -624.186    -402.856     380.299
  H     -625.733    -401.703     381.041
  H     -625.837    -403.452     381.348
  H     -624.674    -402.472     382.271
  P     -623.095    -401.697     380.051
  C     -622.988    -399.609     378.528
  O     -623.562    -400.890     378.740
  C     -623.313    -399.119     377.115
  O     -622.405    -399.774     376.194
  C     -624.756    -399.414     376.661
  O     -625.369    -398.236     376.127
  C     -624.588    -400.423     375.531
  O     -625.561    -400.276     374.510
  C     -623.174    -400.138     375.031
  N     -623.087    -402.737     370.643
  C     -623.444    -401.470     370.918
  N     -623.351    -400.806     372.091
  C     -622.791    -401.584     373.039
  C     -622.362    -402.899     372.900
  C     -622.538    -403.491     371.632
  N     -622.228    -404.796     371.366
  N     -621.849    -403.370     374.097
  C     -622.027    -402.373     374.954
  N     -622.600    -401.286     374.362
  O     -621.805    -402.513     379.561
  O     -622.800    -400.866     381.257
  H     -625.325    -400.902     373.787
  H     -621.074    -402.361     380.200
  H     -623.864    -400.906     370.088
  H     -621.779    -402.412     376.007
  H     -623.156    -399.285     374.338
  H     -624.663    -401.442     375.944
  H     -625.375    -399.820     377.468
  H     -623.109    -398.041     377.061
  H     -621.901    -399.673     378.639
  H     -622.502    -405.182     370.471
  H     -621.923    -405.394     372.133
  H     -623.381    -398.911     379.274
  P     -626.756    -397.790     376.822
  C     -629.241    -398.570     376.747
  O     -627.926    -398.717     376.214
  O     -627.036    -396.344     376.182
  O     -626.696    -397.734     378.311
  H     -627.136    -395.692     376.886
  H     -629.905    -399.245     376.249
  H     -629.576    -397.565     376.597
  H     -629.228    -398.789     377.794

 6  7  8  9  10  11  12  13  14  15  25  28  32  33  34  35 0
 6-311+G(2d,p)
 ****
 36  39  40 0
 6-311+G(2d,p)
 ****
 1  2  3  4  5  16  17  18  19  20  21  22  23  24 0
 3-21G
 ****
 26  27  29  30  31  37  38  41  42  43  44  45  46  47  48 0
 3-21G
 ****


