%nproc=1
%NoSave
%Mem=1900MB
#P OB98/GEN NMR

erre ene a

0 1
  C     -351.579     842.605    -355.970
  O     -351.486     844.022    -355.947
  P     -351.263     844.724    -354.522
  C     -352.753     846.039    -352.870
  O     -352.712     845.236    -354.042
  C     -354.012     845.750    -352.063
  O     -355.174     846.203    -352.830
  C     -354.233     844.264    -351.729
  O     -354.661     844.134    -350.361
  C     -355.412     843.869    -352.625
  O     -356.130     842.760    -352.093
  C     -356.194     845.186    -352.659
  N     -360.499     843.227    -354.422
  C     -359.900     843.063    -353.181
  N     -360.502     842.221    -352.317
  N     -358.795     843.677    -352.832
  C     -358.316     844.518    -353.786
  C     -358.828     844.761    -355.033
  C     -360.013     844.045    -355.438
  O     -360.547     844.063    -356.547
  N     -358.073     845.703    -355.710
  C     -357.103     846.010    -354.865
  N     -357.182     845.286    -353.704
  O     -350.498     846.081    -354.920
  O     -350.488     843.930    -353.535
  H     -355.458     842.131    -351.772
  H     -349.653     846.136    -354.427
  H     -361.345     842.707    -354.654
  H     -356.304     846.730    -355.063
  H     -356.687     845.362    -351.698
  H     -355.025     843.603    -353.616
  H     -361.369     841.736    -352.514
  H     -353.347     843.627    -351.902
  H     -360.092     842.110    -351.407
  H     -353.994     846.353    -351.147
  H     -352.737     847.102    -353.159
  H     -351.863     845.834    -352.259
  P     -354.190     842.811    -349.611
  C     -355.120     840.373    -349.506
  O     -355.103     841.614    -350.170
  O     -354.732     843.023    -348.111
  O     -352.703     842.577    -349.641
  H     -354.197     842.507    -347.470
  H     -354.619     840.418    -348.535
  H     -354.632     839.632    -350.129
  H     -356.159     840.067    -349.340
  H     -351.726     842.274    -356.977
  H     -352.406     842.292    -355.367
  H     -350.675     842.182    -355.584

 3  4  5  6  7  8  9  10  11  12  23  26  30  31  33  0
 6-311+G(2d,p)
 ****
 35  36  37  38 0
 6-311+G(2d,p)
 ****
 1  2  13  14  15  16  17  18  19  20  21  22  24  25  27  28  29 0
 3-21G
 ****
 32  34  39  40  41  42  43  44  45  46  47  48  49 0
 3-21G
 ****


