%nproc=1
%NoSave
%Mem=1900MB
#P OB98/GEN NMR

erre ene a

0 1
  C      217.680     231.648    -725.793
  O      217.553     232.527    -726.894
  P      218.324     232.136    -728.245
  C      217.627     234.307    -729.510
  O      218.684     233.510    -728.992
  C      218.147     235.682    -729.905
  O      218.654     236.373    -728.747
  C      219.299     235.666    -730.899
  O      218.837     235.381    -732.216
  C      219.853     237.074    -730.714
  O      219.044     238.025    -731.421
  C      219.702     237.277    -729.197
  N      224.708     238.287    -728.831
  C      223.762     238.709    -729.703
  N      222.455     238.382    -729.744
  C      222.151     237.518    -728.760
  C      223.011     236.982    -727.817
  C      224.349     237.406    -727.871
  N      225.314     236.967    -726.986
  N      222.343     236.117    -726.978
  C      221.099     236.138    -727.400
  N      220.928     236.985    -728.468
  O      217.171     231.512    -729.162
  O      219.474     231.188    -728.061
  H      219.005     237.734    -732.351
  H      217.521     230.792    -729.723
  H      224.099     239.419    -730.460
  H      220.283     235.571    -726.970
  H      219.397     238.294    -728.935
  H      220.883     237.182    -731.076
  H      220.053     234.921    -730.602
  H      217.306     236.266    -730.305
  H      216.852     234.425    -728.744
  H      226.264     237.198    -727.190
  H      225.071     236.205    -726.364
  H      217.185     233.791    -730.372
  P      219.542     234.174    -733.000
  C      218.534     235.414    -735.009
  O      219.656     234.711    -734.506
  O      218.354     233.106    -733.095
  O      220.813     233.681    -732.386
  H      217.528     233.513    -733.413
  H      218.759     235.761    -736.021
  H      218.304     236.273    -734.370
  H      217.665     234.747    -735.060
  H      217.119     232.029    -724.966
  H      218.711     231.568    -725.518
  H      217.307     230.682    -726.063

 3  4  5  6  7  8  9  10  11  12  22  25  29  30  31  32 0
 6-311+G(2d,p)
 ****
 33  36  37 0
 6-311+G(2d,p)
 ****
 1  2  13  14  15  16  17  18  19  20  21  23  24  26 0
 3-21G
 ****
 27  28  34  35  38  39  40  41  42  43  44  45  46  47  48 0
 3-21G
 ****


