%nproc=1
%NoSave
%Mem=1900MB
#P OB98/GEN NMR

erre ene a

0 1
  C     -100.235     172.211    -184.536
  O      -99.266     173.249    -184.314
  P      -99.043     173.805    -182.822
  C     -100.353     176.004    -183.363
  O      -99.174     175.403    -182.847
  C     -100.429     177.474    -182.933
  O     -100.527     177.579    -181.496
  C      -99.204     178.300    -183.305
  O      -99.194     178.650    -184.680
  C      -99.355     179.499    -182.377
  O     -100.265     180.465    -182.933
  C      -99.960     178.849    -181.116
  N      -98.980     178.694    -180.042
  C      -98.881     179.751    -179.143
  O      -99.519     180.794    -179.252
  N      -97.981     179.577    -178.118
  C      -97.148     178.509    -177.956
  O      -96.353     178.424    -177.029
  C      -97.245     177.463    -178.984
  C      -98.139     177.605    -179.962
  O      -97.461     173.608    -182.628
  O      -99.800     173.100    -181.748
  H     -100.424     181.132    -182.237
  H      -97.265     173.483    -181.679
  H      -97.915     180.322    -177.442
  H      -96.586     176.610    -178.900
  H      -98.223     176.840    -180.731
  H     -100.793     179.456    -180.741
  H      -98.406     180.018    -182.201
  H      -98.289     177.754    -183.039
  H     -101.337     177.913    -183.372
  H     -101.228     175.477    -182.976
  H     -100.347     175.921    -184.455
  P      -98.474     177.620    -185.681
  C      -96.337     179.077    -186.066
  O      -97.521     178.521    -186.597
  O      -99.697     177.207    -186.627
  O      -97.822     176.477    -184.975
  H     -100.324     177.941    -186.760
  H      -95.886     178.420    -185.318
  H      -96.564     180.046    -185.612
  H      -95.620     179.227    -186.879
  H     -100.257     171.960    -185.576
  H     -101.202     172.554    -184.232
  H      -99.968     171.346    -183.966

 3  4  5  6  7  8  9  10  11  12  13  23  28  29  30  31  32 0
 6-311+G(2d,p)
 ****
 33  34 0
 6-311+G(2d,p)
 ****
 1  2  14  15  16  17  18  19  20  21  22  24  25  26 0
 3-21G
 ****
 27  35  36  37  38  39  40  41  42  43  44  45 0
 3-21G
 ****


