%nproc=1
%NoSave
%Mem=1900MB
#P OB98/GEN NMR

erre ene a

0 1
  C     -153.422     131.988    -283.386
  O     -152.060     132.169    -283.050
  P     -151.540     133.597    -282.537
  C     -149.724     133.804    -284.345
  O     -150.901     134.377    -283.783
  C     -149.868     133.667    -285.860
  O     -151.191     133.212    -286.214
  C     -149.684     134.975    -286.624
  O     -148.329     135.381    -286.659
  C     -150.284     134.609    -287.971
  O     -149.342     133.877    -288.772
  C     -151.459     133.696    -287.553
  N     -152.743     134.373    -287.628
  C     -153.254     134.589    -288.915
  O     -152.591     134.283    -289.906
  N     -154.502     135.151    -289.040
  C     -155.125     135.572    -287.986
  N     -156.381     136.065    -288.167
  C     -154.548     135.514    -286.628
  C     -153.377     134.888    -286.522
  O     -150.681     133.557    -281.318
  O     -152.885     134.421    -282.257
  H     -152.833     134.816    -281.364
  H     -148.564     134.461    -288.883
  H     -155.084     135.943    -285.790
  H     -152.889     134.774    -285.558
  H     -151.489     132.805    -288.192
  H     -150.582     135.492    -288.549
  H     -150.291     135.759    -286.154
  H     -149.141     132.919    -286.203
  H     -156.750     136.074    -289.111
  H     -149.567     132.819    -283.899
  H     -157.061     136.114    -287.410
  H     -148.862     134.432    -284.095
  P     -148.002     136.868    -286.149
  C     -146.890     137.364    -288.433
  O     -147.809     137.786    -287.447
  O     -146.523     136.736    -285.551
  O     -148.955     137.402    -285.130
  H     -146.434     137.312    -284.765
  H     -147.123     137.877    -289.374
  H     -146.945     136.283    -288.603
  H     -145.871     137.634    -288.128
  H     -153.580     130.979    -283.705
  H     -153.686     132.657    -284.178
  H     -154.031     132.191    -282.530

 3  4  5  6  7  8  9  10  11  12  13  24  27  28  29  30  32 0
 6-311+G(2d,p)
 ****
 34  35 0
 6-311+G(2d,p)
 ****
 1  2  14  15  16  17  18  19  20  21  22  23  25  26 0
 3-21G
 ****
 31  33  36  37  38  39  40  41  42  43  44  45  46 0
 3-21G
 ****


