%nproc=1
%NoSave
%Mem=1900MB
#P OB98/GEN NMR

erre ene a

0 1
  C     -820.716     304.639     477.177
  O     -820.478     305.379     475.991
  P     -821.591     305.328     474.836
  C     -821.918     304.065     472.592
  O     -821.156     304.191     473.782
  C     -821.313     302.995     471.674
  O     -820.058     303.484     471.130
  C     -821.022     301.676     472.383
  O     -821.219     300.585     471.462
  C     -819.532     301.746     472.673
  O     -818.964     300.454     472.838
  C     -819.037     302.511     471.450
  N     -814.384     301.940     473.353
  C     -815.326     300.984     473.046
  N     -815.028     299.704     473.383
  N     -816.477     301.247     472.467
  C     -816.649     302.569     472.200
  C     -815.776     303.605     472.445
  C     -814.525     303.298     473.094
  O     -813.652     304.107     473.414
  N     -816.282     304.796     471.998
  C     -817.488     304.494     471.532
  N     -817.759     303.157     471.665
  O     -821.331     306.694     474.036
  O     -822.997     305.251     475.324
  H     -819.489     299.991     473.524
  H     -822.036     307.338     474.250
  H     -813.529     301.685     473.812
  H     -818.187     305.200     471.114
  H     -818.936     301.848     470.577
  H     -819.363     302.313     473.599
  H     -814.199     299.445     473.885
  H     -821.617     301.493     473.280
  H     -815.720     298.990     473.210
  H     -821.989     302.844     470.824
  H     -821.930     305.020     472.066
  H     -822.952     303.797     472.840
  P     -821.789     299.224     472.092
  C     -820.453     297.149     472.940
  O     -820.569     298.555     472.885
  O     -821.983     298.282     470.811
  O     -823.055     299.392     472.876
  H     -822.673     297.609     470.990
  H     -819.537     296.849     472.426
  H     -821.307     296.650     472.460
  H     -820.401     296.838     473.978
  H     -819.894     304.769     477.849
  H     -820.819     303.602     476.936
  H     -821.615     304.988     477.641

 3  4  5  6  7  8  9  10  11  12  23  26  30  31 0
 6-311+G(2d,p)
 ****
 33  35  36  37  38 0
 6-311+G(2d,p)
 ****
 1  2  13  14  15  16  17  18  19  20  21  22  24  25 0
 3-21G
 ****
 27  28  29  32  34  39  40  41  42  43  44  45  46  47  48  49 0
 3-21G
 ****


