%nproc=1
%NoSave
%Mem=1900MB
#P OB98/GEN NMR

erre ene a

0 1
  C     -206.526     569.333     402.745
  O     -207.494     568.304     402.718
  H     -207.007     570.268     402.448
  H     -205.723     569.116     402.039
  H     -206.121     569.453     403.756
  P     -207.058     566.799     403.076
  C     -208.488     564.917     404.084
  O     -208.432     565.954     403.114
  C     -209.821     564.174     404.019
  O     -210.908     565.108     404.283
  C     -210.102     563.515     402.658
  O     -210.555     562.171     402.844
  C     -211.229     564.359     402.072
  O     -212.010     563.656     401.118
  C     -211.962     564.780     403.352
  N     -212.873     565.902     403.125
  C     -214.240     565.602     403.158
  O     -214.613     564.444     403.370
  N     -215.134     566.594     402.884
  C     -214.714     567.783     402.561
  N     -215.657     568.715     402.274
  C     -213.274     568.131     402.493
  C     -212.418     567.160     402.786
  O     -206.205     566.675     404.297
  O     -206.341     566.255     401.753
  H     -212.697     564.257     400.771
  H     -205.749     565.503     401.993
  H     -212.974     569.132     402.214
  H     -211.352     567.318     402.759
  H     -212.539     563.946     403.776
  H     -210.801     565.243     401.584
  H     -209.227     563.510     401.999
  H     -209.853     563.437     404.833
  H     -216.629     568.433     402.329
  H     -208.339     565.364     405.083
  H     -215.445     569.659     401.992
  H     -207.672     564.211     403.885
  P     -209.432     561.029     402.779
  C     -209.202     558.807     404.107
  O     -210.059     559.681     403.394
  O     -208.359     561.488     403.870
  O     -208.813     560.883     401.431
  H     -207.540     561.785     403.428
  H     -209.761     557.962     404.451
  H     -208.783     559.323     404.945
  H     -208.415     558.475     403.463

 6  7  8  9  10  11  12  13  14  15  16  26  30  31  32  33  35 0
 6-311+G(2d,p)
 ****
 37  38 0
 6-311+G(2d,p)
 ****
 1  2  3  4  5  17  18  19  20  21  22  23  24  25 0
 3-21G
 ****
 27  28  29  34  36  39  40  41  42  43  44  45  46 0
 3-21G
 ****


