%nproc=1
%NoSave
%Mem=1900MB
#P OB98/GEN NMR

erre ene a

0 1
  C      113.745      -5.552     435.017
  O      113.650      -5.223     436.406
  P      112.247      -4.648     436.935
  C      109.948      -5.902     436.828
  O      111.324      -5.935     437.184
  C      109.433      -7.322     436.598
  O      110.218      -7.990     435.581
  C      109.512      -8.217     437.823
  O      108.502      -7.894     438.768
  C      109.374      -9.594     437.186
  O      107.992      -9.882     436.909
  C      110.146      -9.411     435.862
  N      111.472     -10.017     435.886
  C      111.544     -11.328     435.424
  O      110.564     -11.963     435.039
  N      112.790     -11.896     435.438
  C      113.936     -11.303     435.886
  O      115.027     -11.862     435.864
  C      113.785      -9.937     436.406
  C      112.579      -9.363     436.384
  O      111.663      -3.988     435.602
  O      112.397      -3.720     438.092
  H      111.896      -4.484     434.799
  H      107.619     -10.256     437.732
  H      112.867     -12.843     435.096
  H      114.670      -9.447     436.796
  H      112.448      -8.355     436.766
  H      109.584      -9.856     435.031
  H      109.753     -10.394     437.829
  H      110.501      -8.123     438.292
  H      108.396      -7.254     436.244
  H      109.816      -5.319     435.911
  H      109.389      -5.402     437.623
  P      108.858      -6.758     439.849
  C      107.586      -4.544     440.405
  O      108.030      -5.453     439.424
  O      110.367      -6.409     439.447
  O      108.683      -7.203     441.263
  H      110.495      -6.327     438.487
  H      107.367      -3.586     439.923
  H      108.344      -4.381     441.176
  H      106.669      -4.921     440.868
  H      114.727      -5.921     434.804
  H      113.557      -4.678     434.430
  H      113.022      -6.304     434.778

 3  4  5  6  7  8  9  10  11  12  13  24  28  29  30  31  32 0
 6-311+G(2d,p)
 ****
 33  34 0
 6-311+G(2d,p)
 ****
 1  2  14  15  16  17  18  19  20  21  22  23  25  26  27 0
 3-21G
 ****
 35  36  37  38  39  40  41  42  43  44  45 0
 3-21G
 ****


