%nproc=1
%NoSave
%Mem=1900MB
#P OB98/GEN NMR

erre ene a

0 1
  C     -499.081     299.581    -682.198
  O     -498.326     299.289    -683.352
  P     -498.948     298.413    -684.537
  C     -499.156     296.096    -683.430
  O     -498.399     296.921    -684.312
  C     -498.782     294.622    -683.605
  O     -499.276     294.116    -684.867
  C     -497.278     294.358    -683.616
  O     -496.756     294.412    -682.309
  C     -497.224     292.989    -684.276
  O     -497.471     291.947    -683.323
  C     -498.371     293.080    -685.305
  N     -497.902     293.315    -686.660
  C     -497.069     292.329    -687.203
  O     -496.758     291.345    -686.536
  N     -496.577     292.511    -688.471
  C     -496.863     293.590    -689.130
  N     -496.337     293.714    -690.385
  C     -497.705     294.670    -688.578
  C     -498.182     294.469    -687.350
  O     -498.748     298.965    -685.911
  O     -500.495     298.291    -684.126
  H     -497.643     291.130    -683.847
  H     -500.974     299.137    -684.282
  H     -497.916     295.556    -689.165
  H     -498.812     295.211    -686.868
  H     -498.957     292.147    -685.307
  H     -496.245     292.787    -684.734
  H     -496.780     295.101    -684.265
  H     -499.256     294.046    -682.797
  H     -495.741     292.970    -690.705
  H     -500.220     296.223    -683.667
  H     -496.470     294.518    -690.967
  H     -498.997     296.415    -682.397
  P     -495.364     295.150    -682.028
  C     -493.828     293.181    -682.662
  O     -494.286     294.032    -681.617
  O     -495.425     296.329    -681.114
  O     -494.876     295.592    -683.494
  H     -494.540     296.503    -683.453
  H     -492.897     292.714    -682.342
  H     -493.659     293.747    -683.577
  H     -494.576     292.399    -682.834
  H     -498.494     300.173    -681.528
  H     -499.361     298.668    -681.715
  H     -499.961     300.123    -682.475

 3  4  5  6  7  8  9  10  11  12  13  23  27  28  29  30  32 0
 6-311+G(2d,p)
 ****
 34  35 0
 6-311+G(2d,p)
 ****
 1  2  14  15  16  17  18  19  20  21  22  24  25  26 0
 3-21G
 ****
 31  33  36  37  38  39  40  41  42  43  44  45  46 0
 3-21G
 ****


