%nproc=1
%NoSave
%Mem=1900MB
#P OB98/GEN NMR

erre ene a

0 1
  C     -350.649    -229.356     229.117
  O     -351.094    -228.121     228.586
  P     -351.964    -228.066     227.249
  C     -349.985    -226.758     226.120
  O     -350.990    -227.743     226.026
  C     -349.414    -226.495     224.720
  O     -348.782    -227.687     224.211
  C     -350.505    -226.085     223.737
  O     -350.592    -224.670     223.650
  C     -350.054    -226.740     222.445
  O     -349.047    -225.940     221.799
  C     -349.436    -228.060     222.969
  N     -350.342    -229.188     223.251
  C     -349.814    -230.457     223.476
  O     -348.612    -230.703     223.489
  N     -350.733    -231.461     223.668
  C     -352.087    -231.303     223.698
  O     -352.896    -232.224     223.628
  C     -352.566    -229.919     223.727
  C     -351.689    -228.944     223.480
  O     -352.805    -226.714     227.419
  O     -352.846    -229.247     227.007
  H     -348.286    -225.894     222.405
  H     -353.705    -226.908     227.738
  H     -350.359    -232.404     223.692
  H     -353.620    -229.741     223.889
  H     -352.023    -227.908     223.459
  H     -348.666    -228.431     222.282
  H     -350.877    -226.824     221.737
  H     -351.469    -226.520     224.033
  H     -348.648    -225.712     224.790
  H     -349.194    -227.090     226.800
  H     -350.403    -225.835     226.536
  P     -351.718    -224.000     222.729
  C     -350.039    -222.985     221.080
  O     -351.074    -223.932     221.261
  O     -352.295    -222.724     223.240
  O     -352.830    -225.152     222.617
  H     -353.546    -224.986     223.264
  H     -349.571    -223.155     220.109
  H     -349.283    -223.085     221.862
  H     -350.456    -221.972     221.094
  H     -350.086    -229.178     230.009
  H     -350.031    -229.851     228.398
  H     -351.494    -229.971     229.345

 3  4  5  6  7  8  9  10  11  12  13  23  28  29  30  31  32 0
 6-311+G(2d,p)
 ****
 33  34 0
 6-311+G(2d,p)
 ****
 1  2  14  15  16  17  18  19  20  21  22  24  25  26  27 0
 3-21G
 ****
 35  36  37  38  39  40  41  42  43  44  45 0
 3-21G
 ****


