%nproc=1
%NoSave
%Mem=1900MB
#P OB98/GEN NMR

erre ene a

0 1
  C     -254.820     172.785    -433.844
  O     -254.899     173.210    -435.187
  H     -254.539     171.727    -433.823
  H     -255.797     172.896    -433.366
  H     -254.069     173.358    -433.294
  P     -254.990     174.790    -435.449
  C     -252.825     174.823    -436.881
  O     -254.220     175.083    -436.832
  C     -252.327     174.870    -438.324
  O     -252.916     173.765    -439.062
  C     -252.690     176.167    -439.063
  O     -251.593     176.543    -439.906
  C     -253.876     175.766    -439.922
  O     -254.026     176.593    -441.076
  C     -253.541     174.311    -440.238
  N     -256.704     173.192    -443.998
  C     -255.530     173.921    -444.006
  N     -255.143     174.436    -445.197
  N     -254.801     174.128    -442.942
  C     -255.291     173.522    -441.834
  C     -256.443     172.780    -441.696
  C     -257.258     172.586    -442.874
  O     -258.318     171.971    -442.928
  N     -256.614     172.364    -440.396
  C     -255.571     172.853    -439.754
  N     -254.735     173.557    -440.585
  O     -254.009     175.402    -434.339
  O     -256.359     175.377    -435.353
  H     -254.855     176.320    -441.526
  H     -254.521     175.944    -433.713
  H     -257.237     173.078    -444.847
  H     -255.374     172.739    -438.695
  H     -252.844     174.217    -441.076
  H     -254.798     175.839    -439.329
  H     -255.629     174.280    -446.062
  H     -252.927     176.990    -438.389
  H     -254.264     174.942    -445.230
  H     -251.241     174.710    -438.326
  H     -252.638     173.826    -436.463
  H     -252.297     175.569    -436.280
  P     -250.967     178.005    -439.674
  C     -248.498     177.275    -439.978
  O     -249.566     178.081    -440.459
  O     -250.540     177.980    -438.133
  O     -251.921     179.119    -439.962
  H     -251.142     178.539    -437.610
  H     -247.634     177.425    -440.591
  H     -248.785     176.245    -440.012
  H     -248.271     177.549    -438.969

 6  7  8  9  10  11  12  13  14  15  26  29  33  34 0
 6-311+G(2d,p)
 ****
 36  38  39  40  41 0
 6-311+G(2d,p)
 ****
 1  2  3  4  5  16  17  18  19  20  21  22  23  24  25 0
 3-21G
 ****
 27  28  30  31  32  35  37  42  43  44  45  46  47 0
 3-21G
 ****
 48  49 0
 3-21G
 ****


