%nproc=1
%NoSave
%Mem=1900MB
#P OB98/GEN NMR

erre ene a

0 1
  C      -47.737     433.384      -1.271
  O      -46.770     433.693      -0.285
  H      -48.731     433.589      -0.863
  H      -47.681     432.327      -1.548
  H      -47.589     434.008      -2.158
  P      -45.223     433.439      -0.622
  C      -44.616     435.874      -1.249
  O      -44.818     434.545      -1.716
  C      -43.187     436.331      -1.546
  O      -42.948     436.340      -2.966
  C      -42.863     437.737      -1.043
  O      -42.547     437.714       0.340
  C      -41.662     438.073      -1.914
  O      -40.491     437.388      -1.407
  C      -42.075     437.469      -3.266
  N      -41.965     441.965      -5.632
  C      -41.101     441.437      -4.693
  N      -40.077     442.231      -4.306
  N      -41.230     440.242      -4.169
  C      -42.338     439.589      -4.597
  C      -43.280     440.016      -5.511
  C      -43.084     441.310      -6.131
  O      -43.820     441.804      -6.989
  N      -44.316     439.115      -5.623
  C      -43.971     438.129      -4.821
  N      -42.783     438.369      -4.166
  O      -44.855     432.039      -1.008
  O      -44.446     433.923       0.693
  H      -39.747     437.623      -1.994
  H      -44.306     433.183       1.313
  H      -41.817     442.891      -5.995
  H      -44.540     437.214      -4.673
  H      -41.215     437.078      -3.825
  H      -41.430     439.141      -1.925
  H      -40.007     443.210      -4.558
  H      -43.672     438.442      -1.268
  H      -39.465     441.881      -3.573
  H      -42.502     435.589      -1.108
  H      -44.807     435.877      -0.168
  H      -45.328     436.556      -1.723
  P      -42.955     438.925       1.317
  C      -44.950     437.422       2.020
  O      -44.526     438.713       1.619
  O      -42.596     440.281       0.822
  O      -42.299     438.539       2.722
  H      -41.352     438.828       2.794
  H      -46.007     437.429       2.185
  H      -44.450     437.148       2.925
  H      -44.713     436.715       1.253

 6  7  8  9  10  11  12  13  14  15  26  29  33  34 0
 6-311+G(2d,p)
 ****
 36  38  39  40  41 0
 6-311+G(2d,p)
 ****
 1  2  3  4  5  16  17  18  19  20  21  22  23  24  25 0
 3-21G
 ****
 27  28  30  31  32  35  37  42  43  44  45  46  47 0
 3-21G
 ****
 48  49 0
 3-21G
 ****


