%nproc=1
%NoSave
%Mem=1900MB
#P OB98/GEN NMR

erre ene a

0 1
  C     -145.478      -4.012     -15.697
  O     -146.478      -3.020     -15.842
  H     -144.754      -3.902     -16.508
  H     -145.930      -5.005     -15.758
  H     -144.960      -3.896     -14.741
  P     -147.504      -2.861     -14.623
  C     -147.204      -2.111     -12.127
  O     -146.632      -2.717     -13.279
  C     -146.355      -2.418     -10.897
  O     -146.329      -3.834     -10.633
  C     -144.887      -2.054     -11.045
  O     -144.665      -0.661     -11.003
  C     -144.290      -2.799      -9.859
  O     -144.395      -2.039      -8.649
  C     -145.176      -4.067      -9.789
  N     -144.442      -5.258     -10.171
  C     -143.725      -5.877      -9.138
  O     -143.763      -5.416      -7.997
  N     -142.958      -6.973      -9.436
  C     -142.889      -7.399     -10.659
  N     -142.085      -8.471     -10.892
  C     -143.627      -6.776     -11.776
  C     -144.377      -5.718     -11.465
  O     -148.124      -4.330     -14.500
  O     -148.519      -1.783     -14.796
  H     -145.349      -1.856      -8.522
  H     -147.458      -5.036     -14.485
  H     -143.547      -7.176     -12.776
  H     -144.951      -5.199     -12.223
  H     -145.559      -4.212      -8.771
  H     -143.229      -3.012     -10.010
  H     -144.479      -2.494     -11.965
  H     -146.807      -1.910     -10.035
  H     -141.555      -8.832     -10.107
  H     -148.230      -2.462     -11.978
  H     -141.893      -8.839     -11.812
  H     -147.244      -1.032     -12.304
  P     -143.372      -0.003     -11.679
  C     -142.552       0.326     -14.099
  O     -143.399      -0.420     -13.232
  O     -142.079      -0.283     -10.991
  O     -143.751       1.552     -11.747
  H     -144.550       1.756     -12.264
  H     -142.655      -0.040     -15.099
  H     -141.535       0.219     -13.783
  H     -142.829       1.359     -14.066

 6  7  8  9  10  11  12  13  14  15  16  26  30  31  32  33  35 0
 6-311+G(2d,p)
 ****
 37  38 0
 6-311+G(2d,p)
 ****
 1  2  3  4  5  17  18  19  20  21  22  23  24  25 0
 3-21G
 ****
 27  28  29  34  36  39  40  41  42  43  44  45  46 0
 3-21G
 ****


