%nproc=1
%NoSave
%Mem=1900MB
#P OB98/GEN NMR

erre ene a

0 1
  C      -51.541    -905.992     216.826
  O      -51.672    -906.771     217.994
  H      -52.451    -906.109     216.225
  H      -50.688    -906.329     216.230
  H      -51.423    -904.937     217.075
  P      -50.452    -906.778     219.040
  C      -51.395    -904.617     220.118
  O      -50.274    -905.244     219.500
  C      -51.124    -904.379     221.593
  O      -49.958    -903.550     221.759
  C      -52.270    -903.678     222.323
  O      -53.276    -904.619     222.679
  C      -51.520    -903.131     223.537
  O      -51.273    -904.189     224.478
  C      -50.203    -902.663     222.897
  N      -50.914    -897.806     224.171
  C      -51.050    -898.949     224.938
  N      -51.484    -898.780     226.198
  N      -50.812    -900.154     224.485
  C      -50.457    -900.179     223.182
  C      -50.289    -899.116     222.323
  C      -50.512    -897.782     222.846
  O      -50.378    -896.730     222.206
  N      -49.979    -899.531     221.044
  C      -49.915    -900.836     221.148
  N      -50.200    -901.288     222.422
  O      -49.183    -907.422     218.579
  O      -51.056    -907.485     220.339
  H      -52.125    -904.653     224.600
  H      -50.878    -908.445     220.333
  H      -51.124    -896.911     224.571
  H      -49.654    -901.517     220.341
  H      -49.354    -902.768     223.575
  H      -52.074    -902.352     224.062
  H      -51.949    -897.934     226.502
  H      -52.660    -902.838     221.754
  H      -51.648    -899.619     226.761
  H      -50.890    -905.351     222.056
  H      -52.255    -905.275     219.984
  H      -51.604    -903.662     219.615
  P      -54.710    -904.611     221.943
  C      -54.518    -907.091     221.218
  O      -54.594    -905.722     220.798
  O      -55.146    -903.261     221.461
  O      -55.707    -905.288     222.998
  H      -56.109    -904.638     223.627
  H      -54.444    -907.724     220.359
  H      -55.398    -907.343     221.773
  H      -53.655    -907.227     221.836

 6  7  8  9  10  11  12  13  14  15  26  29  33  34 0
 6-311+G(2d,p)
 ****
 36  38  39  40  41 0
 6-311+G(2d,p)
 ****
 1  2  3  4  5  16  17  18  19  20  21  22  23  24  25 0
 3-21G
 ****
 27  28  30  31  32  35  37  42  43  44  45  46  47 0
 3-21G
 ****
 48  49 0
 3-21G
 ****


