%nproc=1
%NoSave
%Mem=1900MB
#P OB98/GEN NMR

erre ene a

0 1
  C       60.006     114.533     -60.733
  O       61.280     114.864     -60.226
  H       59.288     114.534     -59.907
  H       60.027     113.534     -61.174
  H       59.685     115.264     -61.480
  P       62.465     115.075     -61.288
  C       62.845     117.014     -62.972
  O       62.480     116.640     -61.652
  C       64.021     117.993     -62.942
  O       63.557     119.264     -62.418
  C       65.190     117.524     -62.072
  O       66.413     117.894     -62.711
  C       65.027     118.320     -60.791
  O       66.255     118.483     -60.085
  C       64.410     119.623     -61.312
  N       63.670     120.324     -60.265
  C       64.251     121.493     -59.760
  O       65.337     121.879     -60.194
  N       63.621     122.161     -58.745
  C       62.548     121.659     -58.214
  N       61.987     122.354     -57.186
  C       61.938     120.394     -58.667
  C       62.539     119.791     -59.691
  O       61.897     114.395     -62.620
  O       63.790     114.521     -60.886
  H       66.057     118.868     -59.203
  H       62.616     114.012     -63.156
  H       61.058     120.005     -58.176
  H       62.169     118.854     -60.087
  H       65.189     120.292     -61.700
  H       64.322     117.807     -60.126
  H       65.186     116.444     -61.889
  H       64.349     118.172     -63.972
  H       62.447     123.207     -56.893
  H       61.991     117.500     -63.454
  H       61.181     122.035     -56.670
  H       63.109     116.118     -63.545
  P       67.323     116.699     -63.273
  C       67.503     115.318     -65.465
  O       66.865     116.384     -64.776
  O       66.816     115.428     -62.444
  O       68.789     116.927     -63.093
  H       67.495     115.160     -61.796
  H       67.092     115.233     -66.449
  H       67.345     114.404     -64.932
  H       68.553     115.515     -65.533

 6  7  8  9  10  11  12  13  14  15  16  26  30  31  32  33  35 0
 6-311+G(2d,p)
 ****
 37  38 0
 6-311+G(2d,p)
 ****
 1  2  3  4  5  17  18  19  20  21  22  23  24  25 0
 3-21G
 ****
 27  28  29  34  36  39  40  41  42  43  44  45  46 0
 3-21G
 ****


