%nproc=1
%NoSave
%Mem=1900MB
#P OB98/GEN NMR

erre ene a

0 1
  C     -833.090    -908.134    -409.404
  O     -832.139    -908.999    -409.984
  H     -833.222    -907.270    -410.064
  H     -832.727    -907.781    -408.438
  H     -834.060    -908.624    -409.283
  P     -831.974    -910.476    -409.378
  C     -831.634    -912.166    -411.294
  O     -832.573    -911.490    -410.471
  C     -831.216    -911.283    -412.478
  O     -830.610    -910.063    -411.962
  C     -830.190    -911.953    -413.416
  O     -830.427    -911.432    -414.731
  C     -828.882    -911.419    -412.866
  O     -827.829    -911.562    -413.797
  C     -829.277    -909.981    -412.522
  N     -828.338    -909.347    -411.589
  C     -827.118    -908.937    -412.120
  O     -826.806    -909.112    -413.303
  N     -826.242    -908.353    -411.250
  C     -826.441    -908.218    -409.905
  O     -825.602    -907.715    -409.159
  C     -827.729    -908.702    -409.391
  C     -828.598    -909.236    -410.243
  O     -832.498    -910.672    -407.994
  O     -830.401    -910.769    -409.465
  H     -826.998    -911.209    -413.418
  H     -830.130    -911.363    -408.745
  H     -825.362    -908.047    -411.616
  H     -827.913    -908.611    -408.328
  H     -829.561    -909.610    -409.889
  H     -829.330    -909.359    -413.419
  H     -828.595    -911.963    -411.956
  H     -830.246    -913.033    -413.418
  H     -832.117    -910.983    -413.025
  H     -832.112    -913.077    -411.666
  H     -830.758    -912.439    -410.702
  P     -831.186    -912.280    -415.853
  C     -832.100    -910.378    -417.332
  O     -832.421    -911.428    -416.417
  O     -831.548    -913.668    -415.449
  O     -830.164    -912.320    -417.097
  H     -830.314    -913.126    -417.625
  H     -832.999    -909.884    -417.637
  H     -831.610    -910.790    -418.190
  H     -831.451    -909.674    -416.854

 6  7  8  9  10  11  12  13  14  15  16  26  31  32  33  34  35 0
 6-311+G(2d,p)
 ****
 36  37 0
 6-311+G(2d,p)
 ****
 1  2  3  4  5  17  18  19  20  21  22  23  24  25 0
 3-21G
 ****
 27  28  29  30  38  39  40  41  42  43  44  45 0
 3-21G
 ****


