%nproc=1
%NoSave
%Mem=1900MB
#P OB98/GEN NMR

erre ene a

0 1
  C     -195.281    -698.940     300.511
  O     -196.257    -699.248     301.483
  H     -194.750    -699.857     300.247
  H     -194.563    -698.221     300.916
  H     -195.738    -698.531     299.606
  P     -197.387    -698.162     301.809
  C     -199.119    -699.997     302.370
  O     -198.418    -698.850     302.831
  C     -199.639    -700.829     303.551
  O     -198.512    -701.470     304.204
  C     -200.319    -699.948     304.601
  O     -201.320    -700.652     305.338
  C     -199.177    -699.594     305.542
  O     -199.616    -699.229     306.850
  C     -198.352    -700.885     305.508
  N     -194.884    -698.989     308.724
  C     -196.248    -698.813     308.724
  N     -196.763    -698.042     309.713
  N     -197.042    -699.337     307.823
  C     -196.383    -700.030     306.854
  C     -195.035    -700.244     306.739
  C     -194.167    -699.688     307.763
  O     -192.944    -699.790     307.794
  N     -194.740    -700.987     305.621
  C     -195.911    -701.214     305.057
  N     -196.949    -700.672     305.783
  O     -198.242    -698.090     300.455
  O     -196.891    -696.807     302.218
  H     -200.141    -698.410     306.767
  H     -198.721    -697.246     300.406
  H     -194.320    -698.588     309.459
  H     -196.065    -701.764     304.142
  H     -198.725    -701.599     306.248
  H     -198.643    -698.737     305.124
  H     -196.172    -697.473     310.289
  H     -200.764    -699.048     304.174
  H     -197.695    -697.659     309.545
  H     -200.293    -701.626     303.188
  H     -198.419    -700.578     301.766
  H     -199.944    -699.701     301.715
  P     -202.732    -700.926     304.640
  C     -203.307    -703.023     306.165
  O     -203.676    -701.766     305.625
  O     -202.393    -701.954     303.470
  O     -203.411    -699.694     304.125
  H     -202.556    -701.554     302.599
  H     -204.095    -703.388     306.791
  H     -202.413    -702.914     306.743
  H     -203.134    -703.716     305.369

 6  7  8  9  10  11  12  13  14  15  26  29  33  34 0
 6-311+G(2d,p)
 ****
 36  38  39  40  41 0
 6-311+G(2d,p)
 ****
 1  2  3  4  5  16  17  18  19  20  21  22  23  24  25 0
 3-21G
 ****
 27  28  30  31  32  35  37  42  43  44  45  46  47 0
 3-21G
 ****
 48  49 0
 3-21G
 ****


