%nproc=1
%NoSave
%Mem=1900MB
#P OB98/GEN NMR

erre ene a

0 1
  C       41.593      -5.135      79.386
  O       40.285      -5.665      79.428
  H       41.535      -4.053      79.534
  H       42.050      -5.329      78.413
  H       42.211      -5.563      80.180
  P       40.092      -7.255      79.370
  C       40.799      -7.112      76.897
  O       39.865      -7.639      77.830
  C       40.904      -8.038      75.688
  O       41.769      -7.458      74.687
  C       41.497      -9.406      76.008
  O       40.551     -10.224      76.666
  C       41.898      -9.867      74.615
  O       40.763     -10.363      73.889
  C       42.411      -8.549      73.988
  N       43.869      -8.425      74.040
  C       44.566      -8.924      72.945
  O       44.018      -9.448      71.978
  N       45.932      -8.840      73.021
  C       46.645      -8.403      74.099
  O       47.859      -8.549      74.211
  C       45.856      -7.819      75.193
  C       44.524      -7.870      75.123
  O       39.088      -7.821      80.317
  O       41.562      -7.822      79.666
  H       41.613      -8.112      80.597
  H       41.096     -10.648      73.016
  H       46.450      -9.243      72.253
  H       46.387      -7.401      76.039
  H       43.920      -7.474      75.932
  H       42.101      -8.479      72.937
  H       42.637     -10.670      74.641
  H       42.402      -9.290      76.616
  H       39.903      -8.142      75.249
  H       41.776      -7.039      77.386
  H       40.477      -6.111      76.593
  P       40.866     -10.869      78.095
  C       41.335     -13.173      77.077
  O       40.556     -12.439      78.012
  O       40.235     -10.174      79.256
  O       42.464     -10.824      78.204
  H       42.715     -10.381      79.038
  H       41.047     -14.203      77.104
  H       42.371     -13.085      77.329
  H       41.173     -12.783      76.094

 6  7  8  9  10  11  12  13  14  15  16  27  31  32  33  34  35 0
 6-311+G(2d,p)
 ****
 36  37 0
 6-311+G(2d,p)
 ****
 1  2  3  4  5  17  18  19  20  21  22  23  24  25 0
 3-21G
 ****
 26  28  29  30  38  39  40  41  42  43  44  45 0
 3-21G
 ****


