%nproc=1
%NoSave
%Mem=1900MB
#P OB98/GEN NMR

erre ene a

0 1
  C      810.061    -320.055      89.957
  O      811.414    -319.765      89.567
  P      812.627    -320.756      89.913
  C      814.533    -319.125      90.533
  O      814.015    -320.031      89.555
  C      815.231    -317.931      89.886
  O      814.287    -316.865      89.618
  C      816.340    -317.310      90.725
  O      817.526    -318.090      90.644
  C      816.435    -315.913      90.119
  O      817.218    -315.946      88.916
  C      814.972    -315.603      89.799
  N      814.798    -311.002      92.036
  C      815.538    -311.477      91.004
  N      815.528    -312.724      90.469
  C      814.620    -313.500      91.093
  C      813.794    -313.156      92.152
  C      813.903    -311.832      92.640
  N      813.158    -311.348      93.684
  N      813.021    -314.224      92.545
  C      813.354    -315.205      91.718
  N      814.315    -314.807      90.814
  O      812.486    -322.130      89.331
  O      812.655    -320.825      91.515
  H      818.150    -316.123      89.170
  H      813.019    -321.690      91.806
  H      816.225    -310.776      90.556
  H      812.928    -316.185      91.718
  H      814.882    -315.061      88.847
  H      816.912    -315.191      90.799
  H      816.022    -317.229      91.772
  H      815.620    -318.251      88.916
  H      815.238    -319.662      91.168
  H      813.323    -310.413      93.996
  H      812.538    -311.979      94.170
  H      813.685    -318.785      91.152
  P      818.259    -318.593      91.976
  C      820.348    -317.120      91.686
  O      819.832    -318.445      91.730
  O      817.821    -319.912      92.498
  O      817.957    -317.422      93.037
  H      817.940    -317.792      93.935
  H      820.153    -316.683      90.690
  H      821.430    -317.148      91.853
  H      819.885    -316.501      92.446
  H      809.418    -319.266      89.627
  H      810.007    -320.137      91.022
  H      809.751    -320.977      89.512

 3  4  5  6  7  8  9  10  11  12  22  25  29  30  31  32 0
 6-311+G(2d,p)
 ****
 33  36  37 0
 6-311+G(2d,p)
 ****
 1  2  13  14  15  16  17  18  19  20  21  23  24  26 0
 3-21G
 ****
 27  28  34  35  38  39  40  41  42  43  44  45  46  47  48 0
 3-21G
 ****


