%nproc=1
%NoSave
%Mem=1900MB
#P OB98/GEN NMR

erre ene a

0 1
  C     -117.307      33.039      47.845
  O     -116.594      33.256      49.044
  P     -115.062      33.707      49.083
  C     -114.318      31.260      49.541
  O     -114.153      32.425      48.742
  C     -113.305      30.154      49.206
  O     -113.460      29.761      47.829
  C     -111.876      30.691      49.345
  O     -111.248      30.727      50.611
  C     -111.083      29.983      48.254
  O     -110.353      28.857      48.749
  C     -112.159      29.532      47.265
  N     -109.904      29.671      42.727
  C     -109.903      28.660      43.667
  N     -109.038      27.646      43.443
  N     -110.661      28.663      44.734
  C     -111.399      29.790      44.868
  C     -111.495      30.851      43.997
  C     -110.683      30.815      42.803
  O     -110.592      31.731      41.987
  N     -112.288      31.852      44.495
  C     -112.643      31.416      45.687
  N     -112.094      30.186      45.973
  O     -114.651      34.596      50.213
  O     -114.951      34.572      47.725
  H     -109.803      28.514      48.021
  H     -114.319      35.298      47.890
  H     -109.240      29.651      41.964
  H     -113.261      31.961      46.391
  H     -112.085      28.453      47.079
  H     -110.340      30.660      47.814
  H     -108.341      27.682      42.715
  H     -111.904      31.744      49.035
  H     -108.889      26.978      44.192
  H     -113.495      29.254      49.797
  H     -115.341      30.902      49.392
  H     -114.222      31.525      50.597
  P     -110.455      31.964      51.243
  C     -108.037      31.514      50.531
  O     -109.199      32.291      50.303
  O     -109.766      31.362      52.558
  O     -111.301      33.144      51.591
  H     -109.562      32.084      53.182
  H     -107.181      32.008      50.070
  H     -108.164      30.524      50.076
  H     -107.847      31.396      51.602
  H     -118.310      32.745      48.075
  H     -116.829      32.266      47.281
  H     -117.322      33.942      47.271

 3  4  5  6  7  8  9  10  11  12  23  26  30  31 0
 6-311+G(2d,p)
 ****
 33  35  36  37  38 0
 6-311+G(2d,p)
 ****
 1  2  13  14  15  16  17  18  19  20  21  22  24  25 0
 3-21G
 ****
 27  28  29  32  34  39  40  41  42  43  44  45  46  47  48  49 0
 3-21G
 ****


