%nproc=1
%NoSave
%Mem=1900MB
#P OB98/GEN NMR

erre ene a

0 1
  C      372.030      51.588    -418.174
  O      372.979      50.576    -418.425
  H      371.400      51.709    -419.061
  H      372.534      52.538    -417.972
  H      371.388      51.324    -417.328
  P      373.895      50.057    -417.218
  C      376.396      50.325    -416.652
  O      375.254      50.902    -417.268
  C      377.662      51.047    -417.105
  O      378.002      50.657    -418.455
  C      377.532      52.567    -417.140
  O      377.593      53.108    -415.832
  C      378.698      52.930    -418.043
  O      379.937      52.920    -417.307
  C      378.661      51.779    -419.074
  N      377.992      52.156    -420.329
  C      378.823      52.552    -421.369
  O      380.043      52.630    -421.270
  N      378.185      52.866    -422.549
  C      376.834      52.905    -422.742
  O      376.316      53.248    -423.798
  C      376.015      52.511    -421.591
  C      376.616      52.159    -420.455
  O      374.079      48.576    -417.132
  O      373.163      50.630    -415.916
  H      380.652      52.823    -417.970
  H      372.630      49.927    -415.498
  H      378.772      53.166    -423.312
  H      374.936      52.536    -421.705
  H      376.028      51.870    -419.594
  H      379.674      51.456    -419.319
  H      378.599      53.932    -418.476
  H      376.597      52.858    -417.635
  H      378.481      50.743    -416.447
  H      376.459      49.271    -416.941
  H      376.284      50.387    -415.561
  P      376.945      54.539    -415.502
  C      377.649      56.981    -415.755
  O      378.100      55.641    -415.663
  O      376.189      54.611    -414.221
  O      375.991      54.823    -416.755
  H      375.054      54.708    -416.500
  H      378.490      57.634    -415.859
  H      377.107      57.236    -414.869
  H      377.010      57.084    -416.607

 6  7  8  9  10  11  12  13  14  15  16  26  31  32  33  34  35 0
 6-311+G(2d,p)
 ****
 36  37 0
 6-311+G(2d,p)
 ****
 1  2  3  4  5  17  18  19  20  21  22  23  24  25 0
 3-21G
 ****
 27  28  29  30  38  39  40  41  42  43  44  45 0
 3-21G
 ****


