%nproc=1
%NoSave
%Mem=1900MB
#P OB98/GEN NMR

erre ene a

0 1
  C       75.586    -277.625     371.868
  O       75.938    -278.096     370.579
  H       74.824    -276.851     371.760
  H       76.463    -277.191     372.358
  H       75.180    -278.443     372.476
  P       76.918    -279.374     370.525
  C       78.906    -278.470     371.983
  O       77.772    -279.317     371.880
  C       79.798    -278.909     373.148
  O       80.978    -278.066     373.168
  C       79.126    -278.808     374.505
  O       79.566    -279.904     375.314
  C       79.667    -277.502     375.080
  O       79.607    -277.479     376.508
  C       81.079    -277.471     374.478
  N       81.612    -276.103     374.401
  C       82.665    -275.794     375.272
  O       83.083    -276.636     376.066
  N       83.188    -274.526     375.249
  C       82.663    -273.622     374.484
  N       83.208    -272.373     374.523
  C       81.514    -273.892     373.590
  C       81.052    -275.143     373.595
  O       77.960    -278.932     369.393
  O       76.221    -280.667     370.255
  H       80.355    -278.018     376.848
  H       78.229    -277.996     369.452
  H       81.091    -273.099     372.985
  H       80.217    -275.429     372.964
  H       81.766    -278.076     375.074
  H       79.069    -276.662     374.709
  H       78.040    -278.802     374.465
  H       80.152    -279.930     372.948
  H       83.979    -272.226     375.164
  H       78.594    -277.432     372.137
  H       82.845    -271.588     374.010
  H       79.457    -278.529     371.037
  P       78.555    -281.124     375.592
  C       76.684    -279.802     376.781
  O       77.053    -280.560     375.639
  O       78.927    -282.026     376.724
  O       78.577    -281.929     374.202
  H       78.551    -282.882     374.402
  H       75.665    -279.488     376.687
  H       77.316    -278.942     376.858
  H       76.792    -280.404     377.659

 6  7  8  9  10  11  12  13  14  15  16  26  30  31  32  33  35 0
 6-311+G(2d,p)
 ****
 37  38 0
 6-311+G(2d,p)
 ****
 1  2  3  4  5  17  18  19  20  21  22  23  24  25 0
 3-21G
 ****
 27  28  29  34  36  39  40  41  42  43  44  45  46 0
 3-21G
 ****


