%nproc=1
%NoSave
%Mem=1900MB
#P OB98/GEN NMR

erre ene a

0 1
  C      168.466     253.115     484.350
  O      167.533     253.605     485.293
  H      168.235     252.067     484.138
  H      169.482     253.173     484.749
  H      168.400     253.681     483.417
  P      167.669     255.129     485.772
  C      169.177     254.777     487.843
  O      169.094     255.237     486.496
  C      169.972     255.764     488.686
  O      171.283     255.974     488.114
  C      169.325     257.143     488.803
  O      168.309     257.133     489.793
  C      170.535     257.982     489.198
  O      170.843     257.768     490.583
  C      171.633     257.369     488.307
  N      174.475     260.427     485.431
  C      174.627     260.069     486.759
  N      175.652     260.641     487.424
  N      173.825     259.241     487.383
  C      172.800     258.807     486.607
  C      172.545     259.102     485.286
  C      173.468     259.974     484.595
  O      173.388     260.305     483.413
  N      171.378     258.522     484.857
  C      170.953     257.841     485.906
  N      171.772     257.993     486.999
  O      166.534     255.672     486.588
  O      167.879     255.946     484.414
  H      171.625     258.314     490.786
  H      167.030     256.265     484.058
  H      175.117     261.088     485.014
  H      170.059     257.225     485.925
  H      172.619     257.401     488.785
  H      170.379     259.050     489.052
  H      176.108     261.480     487.087
  H      168.953     257.502     487.838
  H      175.744     260.430     488.410
  H      170.126     255.314     489.674
  H      169.673     253.798     487.822
  H      168.173     254.657     488.263
  P      166.873     257.799     489.517
  C      167.906     259.888     490.635
  O      167.144     259.378     489.547
  O      165.781     257.333     490.417
  O      166.595     257.526     487.969
  H      166.143     256.661     487.794
  H      168.011     260.948     490.531
  H      168.874     259.433     490.637
  H      167.406     259.667     491.555

 6  7  8  9  10  11  12  13  14  15  26  29  33  34 0
 6-311+G(2d,p)
 ****
 36  38  39  40  41 0
 6-311+G(2d,p)
 ****
 1  2  3  4  5  16  17  18  19  20  21  22  23  24  25 0
 3-21G
 ****
 27  28  30  31  32  35  37  42  43  44  45  46  47 0
 3-21G
 ****
 48  49 0
 3-21G
 ****


