%nproc=1
%NoSave
%Mem=1900MB
#P OB98/GEN NMR

erre ene a

0 1
  C      198.647    -191.732     -73.943
  O      199.586    -192.338     -73.077
  H      199.000    -191.833     -74.974
  H      198.550    -190.669     -73.707
  H      197.673    -192.223     -73.855
  P      199.205    -192.405     -71.521
  C      200.265    -191.368     -69.378
  O      200.109    -191.297     -70.788
  C      201.062    -190.158     -68.881
  O      202.355    -190.151     -69.545
  C      200.381    -188.817     -69.189
  O      200.620    -187.915     -68.105
  C      201.108    -188.335     -70.432
  O      201.050    -186.926     -70.619
  C      202.522    -188.856     -70.163
  N      203.326    -188.964     -71.381
  C      204.121    -187.874     -71.722
  O      204.256    -186.862     -71.036
  N      204.785    -187.979     -72.920
  C      204.712    -189.027     -73.794
  O      205.313    -189.048     -74.860
  C      203.848    -190.144     -73.382
  C      203.203    -190.061     -72.215
  O      199.858    -193.784     -71.039
  O      197.749    -192.317     -71.207
  H      199.220    -194.518     -71.137
  H      201.722    -186.684     -71.290
  H      205.370    -187.201     -73.182
  H      203.760    -190.986     -74.052
  H      202.547    -190.860     -71.888
  H      203.036    -188.213     -69.437
  H      200.683    -188.812     -71.326
  H      199.306    -188.914     -69.360
  H      201.247    -190.271     -67.806
  H      200.807    -192.284     -69.123
  H      199.276    -191.393     -68.906
  P      199.438    -186.896     -67.715
  C      199.001    -184.359     -68.178
  O      199.891    -185.460     -68.275
  O      199.623    -186.784     -66.132
  O      198.092    -187.368     -68.165
  H      200.554    -186.798     -65.850
  H      199.463    -183.489     -68.597
  H      198.768    -184.179     -67.149
  H      198.102    -184.579     -68.715

 6  7  8  9  10  11  12  13  14  15  16  27  31  32  33  34  35 0
 6-311+G(2d,p)
 ****
 36  37 0
 6-311+G(2d,p)
 ****
 1  2  3  4  5  17  18  19  20  21  22  23  24  25 0
 3-21G
 ****
 26  28  29  30  38  39  40  41  42  43  44  45 0
 3-21G
 ****


