%nproc=1
%NoSave
%Mem=1900MB
#P OB98/GEN NMR

erre ene a

0 1
  C       11.255     -42.433     -23.698
  O       11.834     -43.713     -23.547
  H       12.052     -41.685     -23.712
  H       10.587     -42.220     -22.859
  H       10.700     -42.375     -24.639
  P       10.829     -44.963     -23.546
  C        9.497     -46.180     -25.418
  O       10.135     -44.982     -24.993
  C        8.334     -45.844     -26.347
  O        7.292     -45.183     -25.593
  C        8.692     -44.886     -27.477
  O        9.351     -45.546     -28.542
  C        7.318     -44.346     -27.854
  O        6.631     -45.232     -28.747
  C        6.595     -44.302     -26.501
  N        3.582     -40.265     -25.733
  C        3.338     -41.490     -26.247
  N        4.196     -42.521     -26.401
  C        5.416     -42.189     -25.948
  C        5.816     -40.980     -25.406
  C        4.833     -39.983     -25.300
  N        5.090     -38.725     -24.810
  N        7.162     -41.008     -25.101
  C        7.565     -42.214     -25.443
  N        6.544     -42.963     -25.954
  O        9.656     -44.478     -22.569
  O       11.425     -46.258     -23.107
  H        5.702     -44.933     -28.776
  H        9.826     -44.808     -21.667
  H        2.319     -41.664     -26.583
  H        8.579     -42.585     -25.349
  H        5.563     -44.663     -26.573
  H        7.395     -43.379     -28.351
  H        9.303     -44.060     -27.094
  H        7.923     -46.780     -26.746
  H        9.115     -46.717     -24.543
  H       10.231     -46.810     -25.931
  H        4.341     -38.052     -24.785
  H        6.042     -38.471     -24.585
  P       10.217     -44.670     -29.565
  C       12.139     -42.939     -29.300
  O       11.014     -43.570     -28.711
  O        9.111     -43.817     -30.345
  O       11.071     -45.462     -30.497
  H        8.926     -44.215     -31.216
  H       12.557     -42.237     -28.609
  H       11.836     -42.427     -30.189
  H       12.873     -43.677     -29.547

 6  7  8  9  10  11  12  13  14  15  25  28  32  33  34  35 0
 6-311+G(2d,p)
 ****
 36  37  40 0
 6-311+G(2d,p)
 ****
 1  2  3  4  5  16  17  18  19  20  21  22  23  24 0
 3-21G
 ****
 26  27  29  30  31  38  39 41  42  43  44  45  46  47  48 0
 3-21G
 ****


