%nproc=1
%NoSave
%Mem=1900MB
#P OB98/GEN NMR

erre ene a

0 1
  C       18.505     -91.026     247.530
  O       18.990     -90.331     246.379
  P       19.264     -88.761     246.564
  C       21.261     -87.316     247.377
  O       20.831     -88.562     246.850
  C       22.720     -87.396     247.830
  O       22.927     -88.398     248.843
  C       23.685     -87.740     246.704
  O       23.958     -86.584     245.928
  C       24.898     -88.243     247.474
  O       25.734     -87.149     247.908
  C       24.262     -88.944     248.686
  N       25.378     -93.319     250.989
  C       25.739     -92.026     251.321
  N       26.479     -91.877     252.439
  N       25.398     -90.976     250.620
  C       24.656     -91.275     249.528
  C       24.214     -92.510     249.112
  C       24.599     -93.665     249.895
  O       24.288     -94.826     249.655
  N       23.429     -92.410     247.990
  C       23.506     -91.132     247.662
  N       24.183     -90.392     248.597
  O       18.569     -88.428     247.967
  O       18.705     -87.925     245.462
  H       25.963     -86.600     247.137
  H       17.774     -87.881     247.821
  H       25.674     -94.092     251.559
  H       23.068     -90.694     246.778
  H       24.810     -88.725     249.611
  H       25.532     -88.888     246.862
  H       26.773     -92.640     253.026
  H       23.271     -88.546     246.085
  H       26.746     -90.936     252.704
  H       22.985     -86.420     248.260
  H       20.630     -87.027     248.217
  H       21.133     -86.547     246.608
  P       23.567     -86.616     244.374
  C       22.239     -85.080     242.758
  O       22.806     -85.247     244.041
  O       22.411     -87.725     244.313
  O       24.692     -86.964     243.459
  H       22.558     -88.309     243.547
  H       21.372     -84.421     242.839
  H       21.921     -86.034     242.327
  H       22.977     -84.616     242.096
  H       18.360     -92.058     247.289
  H       17.574     -90.598     247.839
  H       19.217     -90.942     248.324

 3  4  5  6  7  8  9  10  11  12  23  26  30  31 0
 6-311+G(2d,p)
 ****
 33  35  36  37  38 0
 6-311+G(2d,p)
 ****
 1  2  13  14  15  16  17  18  19  20  21  22  24  25 0
 3-21G
 ****
 27  28  29  32  34  39  40  41  42  43  44  45  46  47  48  49 0
 3-21G
 ****


