%nproc=1
%NoSave
%Mem=1900MB
#P OB98/GEN NMR

erre ene a

0 1
  C      338.870     620.590    -213.439
  O      339.882     620.784    -214.411
  P      339.527     621.751    -215.652
  C      338.753     619.891    -217.277
  O      339.700     620.902    -217.017
  C      339.092     619.114    -218.564
  O      339.000     619.984    -219.728
  C      340.497     618.513    -218.560
  O      340.450     617.286    -219.288
  C      341.311     619.522    -219.352
  O      342.521     618.962    -219.851
  C      340.279     619.919    -220.407
  N      342.064     622.134    -224.655
  C      341.875     620.824    -224.316
  N      341.412     620.320    -223.154
  C      341.099     621.326    -222.304
  C      341.234     622.680    -222.503
  C      341.755     623.090    -223.741
  N      341.981     624.402    -224.071
  N      340.861     623.385    -221.372
  C      340.468     622.447    -220.515
  N      340.582     621.200    -221.039
  O      340.756     622.778    -215.682
  O      338.226     622.460    -215.508
  H      342.292     618.253    -220.483
  H      340.466     623.650    -215.380
  H      342.135     620.102    -225.078
  H      340.139     622.640    -219.494
  H      340.200     619.175    -221.224
  H      341.553     620.376    -218.713
  H      340.925     618.348    -217.564
  H      338.343     618.307    -218.701
  H      337.743     620.338    -217.397
  H      342.394     624.595    -224.979
  H      341.805     625.116    -223.387
  H      338.679     619.227    -216.428
  P      339.811     616.012    -218.535
  C      341.833     614.376    -218.721
  O      340.516     614.724    -219.149
  O      338.319     615.961    -219.109
  O      339.858     616.124    -217.056
  H      337.726     615.521    -218.463
  H      341.880     613.288    -218.605
  H      342.084     614.849    -217.767
  H      342.538     614.694    -219.482
  H      339.230     619.933    -212.675
  H      338.008     620.159    -213.903
  H      338.608     621.532    -213.005

 3  4  5  6  7  8  9  10  11  12  22  25  29  30  31  32 0
 6-311+G(2d,p)
 ****
 33  36  37 0
 6-311+G(2d,p)
 ****
 1  2  13  14  15  16  17  18  19  20  21  23  24  26 0
 3-21G
 ****
 27  28  34  35  38  39  40  41  42  43  44  45  46  47  48 0
 3-21G
 ****


