%nproc=1
%NoSave
%Mem=1900MB
#P OB98/GEN NMR

erre ene a

0 1
  C       10.096     329.313     432.799
  O       10.224     329.070     431.416
  P       11.390     328.188     430.771
  C       13.091     330.162     431.016
  O       12.504     329.181     430.173
  C       14.046     331.066     430.223
  O       14.633     332.032     431.137
  C       15.205     330.256     429.609
  O       15.547     330.644     428.284
  C       16.293     330.368     430.669
  O       17.600     330.101     430.185
  C       16.065     331.780     431.216
  N       19.985     332.829     434.266
  C       19.903     332.925     432.891
  N       21.068     333.160     432.242
  N       18.788     332.778     432.219
  C       17.737     332.432     432.996
  C       17.697     332.311     434.362
  C       18.930     332.510     435.100
  O       19.065     332.326     436.310
  N       16.462     331.881     434.804
  C       15.771     331.720     433.698
  N       16.505     332.013     432.572
  O       10.972     327.020     429.945
  O       12.128     327.611     432.091
  H       18.199     330.091     430.953
  H       12.452     326.712     431.872
  H       20.894     332.868     434.722
  H       14.737     331.365     433.656
  H       16.560     332.530     430.595
  H       16.083     329.614     431.447
  H       21.958     333.129     432.719
  H       14.921     329.198     429.502
  H       21.081     332.988     431.234
  H       13.484     331.623     429.466
  H       13.637     329.620     431.791
  H       12.311     330.759     431.510
  P       16.039     329.727     427.075
  C       18.576     329.580     427.451
  O       17.528     330.152     426.681
  O       15.186     330.210     425.811
  O       15.848     328.252     427.287
  H       14.927     329.445     425.268
  H       19.495     330.151     427.276
  H       18.739     328.548     427.143
  H       18.333     329.617     428.521
  H        9.239     329.928     432.975
  H       10.973     329.812     433.156
  H        9.980     328.383     433.315

 3  4  5  6  7  8  9  10  11  12  23  26  30  31 0
 6-311+G(2d,p)
 ****
 33  35  36  37  38 0
 6-311+G(2d,p)
 ****
 1  2  13  14  15  16  17  18  19  20  21  22  24  25 0
 3-21G
 ****
 27  28  29  32  34  39  40  41  42  43  44  45  46  47  48  49 0
 3-21G
 ****


