%nproc=1
%NoSave
%Mem=1900MB
#P OB98/GEN NMR

erre ene a

0 1
  C      126.291      64.835     -13.743
  O      125.877      66.118     -13.321
  H      127.182      64.942     -14.367
  H      125.504      64.358     -14.332
  H      126.538      64.215     -12.877
  P      124.541      66.193     -12.434
  C      122.065      66.840     -12.879
  O      123.351      66.597     -13.431
  C      120.992      66.321     -13.830
  O      120.784      67.271     -14.900
  C      121.352      65.011     -14.517
  O      121.163      63.891     -13.669
  C      120.387      65.028     -15.692
  O      119.092      64.532     -15.319
  C      120.325      66.530     -16.049
  N      121.096      66.844     -17.247
  C      120.621      66.290     -18.434
  O      119.618      65.580     -18.491
  N      121.361      66.551     -19.553
  C      122.526      67.260     -19.596
  O      123.181      67.395     -20.621
  C      122.972      67.832     -18.314
  C      122.255      67.593     -17.214
  O      124.766      67.511     -11.553
  O      124.273      64.990     -11.593
  H      125.026      67.264     -10.646
  H      119.245      63.670     -14.888
  H      121.040      66.150     -20.420
  H      123.891      68.408     -18.314
  H      122.576      67.988     -16.255
  H      119.286      66.838     -16.226
  H      120.743      64.401     -16.511
  H      122.377      65.052     -14.900
  H      120.051      66.221     -13.272
  H      121.925      67.916     -12.735
  H      121.996      66.343     -11.906
  P      121.826      62.492     -14.089
  C      121.180      60.621     -15.818
  O      120.817      61.806     -15.131
  O      121.639      61.646     -12.747
  O      123.233      62.615     -14.569
  H      120.810      61.847     -12.283
  H      120.379      60.323     -16.462
  H      121.376      59.844     -15.109
  H      122.059      60.802     -16.401

 6  7  8  9  10  11  12  13  14  15  16  27  31  32  33  34  35 0
 6-311+G(2d,p)
 ****
 36  37 0
 6-311+G(2d,p)
 ****
 1  2  3  4  5  17  18  19  20  21  22  23  24  25 0
 3-21G
 ****
 26  28  29  30  38  39  40  41  42  43  44  45 0
 3-21G
 ****


