%nproc=1
%NoSave
%Mem=1900MB
#P OB98/GEN NMR

erre ene a

0 1
  C     -356.888    -638.435     148.445
  O     -357.244    -637.397     149.330
  H     -356.543    -639.294     149.026
  H     -356.069    -638.105     147.797
  H     -357.742    -638.742     147.833
  P     -358.060    -636.162     148.718
  C     -359.684    -635.942     150.724
  O     -358.660    -635.333     149.955
  C     -359.084    -636.844     151.799
  O     -358.237    -636.049     152.664
  C     -360.125    -637.550     152.676
  O     -359.672    -638.875     152.964
  C     -360.117    -636.724     153.953
  O     -360.556    -637.470     155.089
  C     -358.661    -636.276     154.019
  N     -358.509    -634.534     158.746
  C     -358.586    -635.825     158.276
  N     -358.628    -636.807     159.199
  N     -358.613    -636.136     157.001
  C     -358.522    -635.057     156.190
  C     -358.452    -633.720     156.531
  C     -358.452    -633.391     157.940
  O     -358.412    -632.267     158.422
  N     -358.411    -632.924     155.417
  C     -358.452    -633.767     154.398
  N     -358.514    -635.076     154.820
  O     -359.348    -636.858     148.072
  O     -357.327    -635.343     147.708
  H     -360.194    -637.024     155.885
  H     -359.345    -636.734     147.104
  H     -358.518    -634.347     159.732
  H     -358.451    -633.502     153.361
  H     -358.013    -637.043     154.460
  H     -360.793    -635.862     153.836
  H     -358.567    -636.648     160.187
  H     -361.112    -637.595     152.221
  H     -358.642    -637.767     158.873
  H     -358.427    -637.577     151.306
  H     -360.318    -636.543     150.060
  H     -360.298    -635.163     151.196
  P     -360.355    -640.067     152.132
  C     -358.262    -641.596     152.252
  O     -359.644    -641.447     152.555
  O     -359.824    -639.815     150.635
  O     -361.845    -640.074     152.184
  H     -360.554    -639.479     150.079
  H     -357.925    -642.554     152.588
  H     -357.704    -640.828     152.746
  H     -358.118    -641.517     151.195

 6  7  8  9  10  11  12  13  14  15  26  29  33  34 0
 6-311+G(2d,p)
 ****
 36  38  39  40  41 0
 6-311+G(2d,p)
 ****
 1  2  3  4  5  16  17  18  19  20  21  22  23  24  25 0
 3-21G
 ****
 27  28  30  31  32  35  37  42  43  44  45  46  47 0
 3-21G
 ****
 48  49 0
 3-21G
 ****


