%nproc=1
%NoSave
%Mem=1900MB
#P OB98/GEN NMR

erre ene a

0 1
  C      -13.445       2.382     161.938
  O      -12.249       3.169     161.859
  P      -10.998       2.561     161.064
  C      -11.639       3.147     158.611
  O      -10.786       3.405     159.717
  C      -11.083       3.800     157.342
  O      -11.164       5.239     157.403
  C       -9.617       3.489     157.085
  O       -9.454       2.224     156.460
  C       -9.243       4.605     156.123
  O       -9.692       4.275     154.794
  C      -10.043       5.791     156.673
  N       -7.404      10.164     157.048
  C       -8.018       9.568     156.002
  N       -8.685       8.395     155.976
  C       -8.697       7.830     157.194
  C       -8.116       8.318     158.352
  C       -7.441       9.545     158.251
  N       -6.820      10.149     159.321
  N       -8.327       7.455     159.407
  C       -9.039       6.471     158.898
  N       -9.280       6.647     157.562
  O      -11.555       1.157     160.533
  O       -9.777       2.381     161.904
  H       -9.271       3.429     154.553
  H      -10.837       0.497     160.527
  H       -7.967      10.105     155.060
  H       -9.402       5.616     159.453
  H      -10.448       6.426     155.877
  H       -8.162       4.764     156.062
  H       -9.029       3.574     158.008
  H      -11.688       3.456     156.492
  H      -12.645       3.522     158.817
  H       -6.380      11.043     159.178
  H       -6.864       9.702     160.226
  H      -11.736       2.064     158.482
  P       -8.376       1.223     157.099
  C       -9.303      -1.039     156.221
  O       -8.314      -0.035     156.111
  O       -9.130       0.664     158.396
  O       -7.070       1.859     157.440
  H       -8.481       0.448     159.094
  H       -9.295      -1.640     155.309
  H      -10.296      -0.603     156.346
  H       -9.076      -1.687     157.073
  H      -14.187       2.915     162.495
  H      -13.230       1.455     162.427
  H      -13.811       2.189     160.951

 3  4  5  6  7  8  9  10  11  12  22  25  29  30  31  32 0
 6-311+G(2d,p)
 ****
 33  36  37 0
 6-311+G(2d,p)
 ****
 1  2  13  14  15  16  17  18  19  20  21  23  24  26 0
 3-21G
 ****
 27  28  34  35  38  39  40  41  42  43  44  45  46  47  48 0
 3-21G
 ****


