%nproc=1
%NoSave
%Mem=1900MB
#P OB98/GEN NMR

erre ene a

0 1
  C     -132.653     152.465      -2.718
  O     -131.538     153.290      -2.337
  P     -131.782     154.854      -2.056
  C     -131.316     154.617       0.507
  O     -132.201     155.040      -0.519
  C     -132.011     154.701       1.869
  O     -133.177     153.845       1.898
  C     -131.155     154.243       3.041
  O     -130.197     155.221       3.410
  C     -132.213     153.997       4.109
  O     -132.578     155.222       4.765
  C     -133.389     153.455       3.273
  N     -133.550     152.009       3.397
  C     -134.591     151.571       4.208
  O     -135.316     152.333       4.846
  N     -134.753     150.215       4.292
  C     -133.950     149.273       3.712
  O     -134.135     148.070       3.839
  C     -132.817     149.796       2.934
  C     -132.668     151.118       2.820
  O     -133.173     155.115      -2.812
  O     -130.724     155.776      -2.565
  H     -131.857     155.431       5.390
  H     -133.219     156.047      -3.099
  H     -135.520     149.875       4.850
  H     -132.143     149.083       2.478
  H     -131.837     151.519       2.247
  H     -134.324     153.938       3.580
  H     -131.868     153.307       4.887
  H     -130.664     153.294       2.796
  H     -132.347     155.736       2.018
  H     -130.436     155.265       0.514
  H     -130.995     153.591       0.301
  P     -128.800     155.199       2.617
  C     -129.362     157.468       1.448
  O     -129.041     156.101       1.316
  O     -128.779     153.691       2.081
  O     -127.636     155.572       3.472
  H     -129.672     153.362       1.874
  H     -128.879     157.913       2.322
  H     -130.447     157.578       1.538
  H     -129.025     157.998       0.553
  H     -132.319     151.459      -2.865
  H     -133.077     152.837      -3.627
  H     -133.392     152.485      -1.945

 3  4  5  6  7  8  9  10  11  12  13  23  28  29  30  31  32 0
 6-311+G(2d,p)
 ****
 33  34 0
 6-311+G(2d,p)
 ****
 1  2  14  15  16  17  18  19  20  21  22  24  25  26 0
 3-21G
 ****
 27  35  36  37  38  39  40  41  42  43  44  45 0
 3-21G
 ****


