%nproc=1
%NoSave
%Mem=1900MB
#P OB98/GEN NMR

erre ene a

0 1
  C      432.444    -851.484     192.801
  O      432.754    -850.159     192.425
  H      431.419    -851.711     192.470
  H      432.499    -851.618     193.882
  H      433.125    -852.187     192.303
  P      434.098    -849.505     193.015
  C      434.749    -849.345     195.512
  O      433.748    -849.085     194.525
  C      434.142    -849.345     196.922
  O      433.045    -850.275     196.992
  C      435.111    -849.782     198.010
  O      436.156    -848.866     198.256
  C      434.180    -850.188     199.140
  O      433.792    -849.099     199.971
  C      432.946    -850.718     198.365
  N      432.821    -852.171     198.458
  C      432.456    -852.661     199.711
  O      432.280    -851.951     200.697
  N      432.365    -854.026     199.807
  C      432.639    -854.925     198.814
  O      432.574    -856.134     198.977
  C      433.045    -854.335     197.519
  C      433.111    -853.017     197.403
  O      434.694    -848.397     192.203
  O      435.077    -850.758     193.206
  H      434.602    -848.621     200.223
  H      436.014    -850.467     193.311
  H      432.100    -854.407     200.703
  H      433.272    -855.023     196.706
  H      433.411    -852.554     196.458
  H      432.025    -850.276     198.769
  H      434.641    -850.940     199.790
  H      435.602    -850.711     197.666
  H      433.745    -848.345     197.126
  H      435.498    -848.552     195.444
  H      435.225    -850.307     195.304
  P      437.497    -849.257     199.036
  C      438.139    -850.132     201.389
  O      437.112    -849.646     200.548
  O      438.681    -848.372     198.804
  O      437.837    -850.697     198.385
  H      438.810    -850.781     198.339
  H      437.736    -850.347     202.357
  H      438.907    -849.392     201.479
  H      438.552    -851.025     200.968

 6  7  8  9  10  11  12  13  14  15  16  26  31  32  33  34  35 0
 6-311+G(2d,p)
 ****
 36  37 0
 6-311+G(2d,p)
 ****
 1  2  3  4  5  17  18  19  20  21  22  23  24  25 0
 3-21G
 ****
 27  28  29  30  38  39  40  41  42  43  44  45 0
 3-21G
 ****


