%nproc=1
%NoSave
%Mem=1900MB
#P OB98/GEN NMR

erre ene a

0 1
  C     -914.963      23.960     853.565
  O     -916.135      24.129     852.789
  H     -914.492      24.935     853.703
  H     -914.263      23.297     853.051
  H     -915.209      23.549     854.555
  P     -917.119      22.879     852.594
  C     -916.758      22.879     850.036
  O     -917.693      22.976     851.099
  C     -917.411      23.254     848.697
  O     -918.356      22.198     848.338
  C     -918.213      24.582     848.729
  O     -918.148      25.136     847.413
  C     -919.611      24.067     849.049
  O     -920.599      25.046     848.874
  C     -919.646      22.831     848.125
  N     -920.733      21.901     848.370
  C     -922.030      22.351     848.165
  O     -922.332      23.485     847.789
  N     -923.025      21.449     848.417
  C     -922.848      20.152     848.823
  O     -923.780      19.364     849.008
  C     -921.455      19.719     849.031
  C     -920.471      20.620     848.788
  O     -918.144      22.692     853.663
  O     -916.122      21.626     852.508
  H     -916.112      21.153     853.365
  H     -921.461      24.690     849.172
  H     -923.966      21.749     848.271
  H     -921.275      18.721     849.360
  H     -919.432      20.324     848.924
  H     -919.668      23.152     847.073
  H     -919.666      23.766     850.098
  H     -917.816      25.294     849.454
  H     -916.647      23.275     847.916
  H     -916.391      21.842     849.989
  H     -915.912      23.549     850.239
  P     -916.931      26.050     846.889
  C     -918.266      28.156     847.607
  O     -917.509      27.524     846.594
  O     -916.157      25.454     845.755
  O     -915.994      26.265     848.177
  H     -915.077      26.438     847.883
  H     -918.579      29.121     847.268
  H     -917.666      28.264     848.486
  H     -919.126      27.561     847.833

 6  7  8  9  10  11  12  13  14  15  16  27  31  32  33  34  35 0
 6-311+G(2d,p)
 ****
 36  37 0
 6-311+G(2d,p)
 ****
 1  2  3  4  5  17  18  19  20  21  22  23  24  25 0
 3-21G
 ****
 26  28  29  30  38  39  40  41  42  43  44  45 0
 3-21G
 ****


