%nproc=1
%NoSave
%Mem=1900MB
#P OB98/GEN NMR

erre ene a

0 1
  C      -47.549    -262.357     187.564
  O      -48.586    -261.875     188.392
  H      -46.664    -261.734     187.714
  H      -47.850    -262.289     186.516
  H      -47.293    -263.390     187.811
  P      -49.900    -262.772     188.590
  C      -48.902    -264.700     189.983
  O      -49.718    -263.538     189.989
  C      -49.638    -265.887     190.610
  O      -48.824    -267.083     190.447
  C      -49.919    -265.725     192.111
  O      -51.133    -266.430     192.400
  C      -48.734    -266.444     192.726
  O      -48.969    -266.771     194.077
  C      -48.583    -267.623     191.760
  N      -47.272    -268.265     191.861
  C      -47.179    -269.562     191.378
  O      -48.137    -270.182     190.913
  N      -45.951    -270.156     191.483
  C      -44.850    -269.608     192.073
  O      -43.781    -270.198     192.170
  C      -45.020    -268.250     192.609
  C      -46.204    -267.647     192.478
  O      -50.262    -263.652     187.440
  O      -51.055    -261.714     188.921
  H      -48.252    -267.351     194.416
  H      -51.915    -262.045     188.599
  H      -45.863    -271.095     191.127
  H      -44.169    -267.789     193.090
  H      -46.362    -266.643     192.861
  H      -49.348    -268.383     191.958
  H      -47.842    -265.811     192.697
  H      -49.999    -264.681     192.425
  H      -50.567    -266.058     190.052
  H      -47.997    -264.479     190.560
  H      -48.617    -264.940     188.953
  P      -52.538    -265.677     192.563
  C      -53.348    -265.850     190.123
  O      -53.566    -266.253     191.472
  O      -52.438    -264.183     192.579
  O      -53.134    -266.216     193.950
  H      -53.715    -265.541     194.344
  H      -54.091    -266.294     189.494
  H      -52.376    -266.169     189.808
  H      -53.413    -264.784     190.054

 6  7  8  9  10  11  12  13  14  15  16  26  31  32  33  34  35 0
 6-311+G(2d,p)
 ****
 36  37 0
 6-311+G(2d,p)
 ****
 1  2  3  4  5  17  18  19  20  21  22  23  24  25 0
 3-21G
 ****
 27  28  29  30  38  39  40  41  42  43  44  45 0
 3-21G
 ****


