%nproc=1
%NoSave
%Mem=1900MB
#P OB98/GEN NMR

erre ene a

0 1
  C     -235.591     494.421    -520.182
  O     -236.650     493.505    -520.013
  H     -235.903     495.391    -519.781
  H     -235.366     494.549    -521.244
  H     -234.698     494.089    -519.648
  P     -236.488     492.005    -520.562
  C     -234.208     491.486    -519.496
  O     -235.612     491.236    -519.447
  C     -233.430     490.409    -518.727
  O     -233.694     490.542    -517.302
  C     -233.799     488.979    -519.133
  O     -232.611     488.206    -519.333
  C     -234.556     488.439    -517.921
  O     -234.521     487.014    -517.822
  C     -233.852     489.204    -516.792
  N     -234.617     489.178    -515.550
  C     -234.111     488.364    -514.528
  O     -233.066     487.723    -514.712
  N     -234.812     488.241    -513.361
  C     -235.958     488.838    -513.238
  N     -236.624     488.653    -512.065
  C     -236.549     489.687    -514.297
  C     -235.830     489.807    -515.408
  O     -235.962     491.906    -521.957
  O     -237.935     491.336    -520.386
  H     -235.165     486.739    -517.128
  H     -238.011     490.575    -521.001
  H     -237.499     490.158    -514.142
  H     -236.180     490.408    -516.249
  H     -232.858     488.795    -516.606
  H     -235.607     488.741    -517.986
  H     -234.416     488.929    -520.033
  H     -232.358     490.597    -518.859
  H     -236.184     488.061    -511.370
  H     -234.012     492.479    -519.068
  H     -237.527     489.055    -511.862
  H     -233.894     491.477    -520.546
  P     -232.552     487.337    -520.683
  C     -230.576     488.553    -521.867
  O     -231.036     487.366    -521.225
  O     -233.358     488.224    -521.740
  O     -233.151     485.977    -520.536
  H     -234.203     487.792    -521.956
  H     -229.558     488.423    -522.170
  H     -230.643     489.376    -521.186
  H     -231.182     488.751    -522.726

 6  7  8  9  10  11  12  13  14  15  16  26  30  31  32  33  35 0
 6-311+G(2d,p)
 ****
 37  38 0
 6-311+G(2d,p)
 ****
 1  2  3  4  5  17  18  19  20  21  22  23  24  25 0
 3-21G
 ****
 27  28  29  34  36  39  40  41  42  43  44  45  46 0
 3-21G
 ****


