%nproc=1
%NoSave
%Mem=1900MB
#P OB98/GEN NMR

erre ene a

0 1
  C      244.217     531.512     512.973
  O      244.503     532.603     513.845
  P      245.044     532.291     515.318
  C      244.072     531.802     517.659
  O      243.797     532.237     516.328
  C      242.802     531.247     518.334
  O      241.734     532.251     518.281
  C      242.275     529.963     517.673
  O      242.036     528.913     518.602
  C      241.061     530.441     516.874
  O      240.135     529.396     516.630
  C      240.573     531.629     517.721
  N      239.781     532.564     516.902
  C      238.406     532.409     516.929
  O      237.842     531.499     517.531
  N      237.677     533.307     516.185
  C      238.190     534.277     515.382
  O      237.508     535.038     514.698
  C      239.666     534.369     515.334
  C      240.379     533.510     516.084
  O      246.197     533.139     515.786
  O      245.485     530.751     515.233
  H      239.950     528.938     517.476
  H      246.311     530.640     515.757
  H      236.672     533.205     516.226
  H      240.113     535.094     514.689
  H      241.461     533.534     516.069
  H      239.928     531.286     518.539
  H      241.416     530.812     515.912
  H      243.020     529.548     516.978
  H      243.038     531.065     519.393
  H      244.444     532.641     518.254
  H      244.888     531.066     517.655
  P      243.044     527.690     518.880
  C      243.221     525.245     518.023
  O      242.772     526.562     517.774
  O      243.103     527.198     520.287
  O      244.473     528.300     518.450
  H      245.144     528.000     519.081
  H      243.303     524.716     517.077
  H      242.491     524.736     518.674
  H      244.207     525.241     518.523
  H      243.867     531.888     512.034
  H      243.463     530.893     513.412
  H      245.106     530.937     512.818

 3  4  5  6  7  8  9  10  11  12  13  23  28  29  30  31  32 0
 6-311+G(2d,p)
 ****
 33  34 0
 6-311+G(2d,p)
 ****
 1  2  14  15  16  17  18  19  20  21  22  24  25  26  27 0
 3-21G
 ****
 35  36  37  38  39  40  41  42  43  44  45 0
 3-21G
 ****


