%nproc=1
%NoSave
%Mem=1900MB
#P OB98/GEN NMR

erre ene a

0 1
  C     -120.908     248.742    -371.695
  O     -120.796     247.535    -370.947
  P     -119.441     246.687    -371.101
  C     -120.358     244.422    -371.984
  O     -119.716     245.652    -372.299
  C     -119.742     243.276    -372.790
  O     -119.674     243.629    -374.183
  C     -118.319     242.914    -372.390
  O     -118.284     242.060    -371.247
  C     -117.854     242.165    -373.628
  O     -118.370     240.818    -373.609
  C     -118.510     242.972    -374.753
  N     -114.896     243.790    -378.278
  C     -115.529     242.664    -377.885
  N     -116.472     242.524    -376.932
  C     -116.717     243.704    -376.330
  C     -116.121     244.925    -376.600
  C     -115.172     244.949    -377.634
  N     -114.540     246.104    -378.048
  N     -116.626     245.905    -375.774
  C     -117.525     245.291    -375.025
  N     -117.624     243.963    -375.335
  O     -119.449     245.753    -369.796
  O     -118.196     247.503    -371.203
  H     -117.990     240.359    -374.387
  H     -118.540     245.474    -369.584
  H     -115.247     241.761    -378.415
  H     -118.121     245.769    -374.265
  H     -118.871     242.331    -375.569
  H     -116.766     242.085    -373.689
  H     -117.702     243.815    -372.246
  H     -120.406     242.405    -372.695
  H     -121.416     244.498    -372.227
  H     -114.017     246.068    -378.909
  H     -114.895     246.985    -377.706
  H     -120.254     244.227    -370.910
  P     -117.154     242.378    -370.150
  C     -115.126     241.145    -371.222
  O     -115.767     242.380    -370.952
  O     -117.107     241.029    -369.286
  O     -117.439     243.578    -369.310
  H     -116.779     241.207    -368.389
  H     -114.396     241.293    -372.013
  H     -115.851     240.385    -371.545
  H     -114.610     240.797    -370.321
  H     -121.855     249.198    -371.496
  H     -120.830     248.523    -372.739
  H     -120.123     249.411    -371.411

 3  4  5  6  7  8  9  10  11  12  22  25  29  30  31  32 0
 6-311+G(2d,p)
 ****
 33  36  37 0
 6-311+G(2d,p)
 ****
 1  2  13  14  15  16  17  18  19  20  21  23  24  26 0
 3-21G
 ****
 27  28  34  35  38  39  40  41  42  43  44  45  46  47  48 0
 3-21G
 ****


