%nproc=1
%NoSave
%Mem=1900MB
#P OB98/GEN NMR

erre ene a

0 1
  C      355.286    -499.159    -145.387
  O      355.054    -500.429    -145.962
  H      354.323    -498.704    -145.145
  H      355.806    -498.521    -146.105
  H      355.875    -499.248    -144.469
  P      356.322    -501.410    -146.090
  C      356.506    -500.654    -148.567
  O      356.484    -501.740    -147.650
  C      356.517    -501.167    -150.002
  O      357.748    -501.874    -150.275
  C      355.387    -502.142    -150.330
  O      354.185    -501.450    -150.662
  C      355.965    -502.847    -151.546
  O      355.846    -501.992    -152.703
  C      357.444    -502.993    -151.152
  N      358.342    -507.956    -151.705
  C      357.976    -507.011    -152.647
  N      357.820    -507.450    -153.916
  N      357.773    -505.750    -152.371
  C      357.945    -505.454    -151.058
  C      358.297    -506.303    -150.032
  C      358.531    -507.688    -150.358
  O      358.866    -508.567    -149.562
  N      358.372    -505.641    -148.837
  C      358.039    -504.399    -149.132
  N      357.769    -504.233    -150.468
  O      355.771    -502.780    -145.465
  O      357.551    -500.947    -145.389
  H      355.940    -501.074    -152.389
  H      356.121    -502.875    -144.559
  H      358.472    -508.916    -151.970
  H      357.991    -503.586    -148.422
  H      358.110    -502.924    -152.016
  H      355.445    -503.776    -151.784
  H      357.935    -508.412    -154.190
  H      355.226    -502.864    -149.523
  H      357.558    -506.774    -154.620
  H      356.484    -500.297    -150.672
  H      357.408    -500.057    -148.385
  H      355.621    -500.029    -148.400
  P      352.843    -501.848    -149.879
  C      351.489    -502.166    -152.067
  O      351.614    -501.464    -150.840
  O      352.774    -500.744    -148.724
  O      352.817    -503.229    -149.318
  H      352.923    -501.164    -147.852
  H      350.632    -501.807    -152.598
  H      351.374    -503.211    -151.870
  H      352.367    -502.009    -152.659

 6  7  8  9  10  11  12  13  14  15  26  29  33  34 0
 6-311+G(2d,p)
 ****
 36  38  39  40  41 0
 6-311+G(2d,p)
 ****
 1  2  3  4  5  16  17  18  19  20  21  22  23  24  25 0
 3-21G
 ****
 27  28  30  31  32  35  37  42  43  44  45  46  47 0
 3-21G
 ****
 48  49 0
 3-21G
 ****


