%nproc=1
%NoSave
%Mem=1900MB
#P OB98/GEN NMR

erre ene a

0 1
  C       95.794    -288.871      64.840
  O       96.199    -289.999      65.597
  P       95.267    -291.305      65.551
  C       95.675    -293.808      66.251
  O       96.216    -292.532      65.953
  C       96.790    -294.857      66.308
  O       97.268    -295.136      64.976
  C       98.020    -294.430      67.100
  O       97.803    -294.520      68.500
  C       99.069    -295.394      66.557
  O       98.949    -296.677      67.193
  C       98.664    -295.496      65.072
  N       99.484    -294.666      64.191
  C      100.830    -295.008      64.101
  O      101.328    -295.951      64.718
  N      101.596    -294.212      63.291
  C      101.173    -293.097      62.627
  O      101.912    -292.397      61.949
  C       99.748    -292.766      62.785
  C       98.982    -293.553      63.546
  O       95.054    -291.455      63.972
  O       94.017    -291.163      66.349
  H       95.795    -291.076      63.469
  H       99.191    -296.546      68.130
  H      102.572    -294.454      63.194
  H       99.378    -291.883      62.281
  H       97.933    -293.319      63.683
  H       98.735    -296.536      64.730
  H      100.092    -295.041      66.722
  H       98.294    -293.403      66.837
  H       96.368    -295.783      66.719
  H       94.955    -294.081      65.475
  H       95.150    -293.758      67.212
  P       98.807    -293.680      69.438
  C       98.683    -292.864      71.917
  O       98.009    -293.383      70.795
  O       98.835    -292.272      68.678
  O      100.145    -294.320      69.606
  H       97.956    -291.992      68.371
  H       97.950    -292.406      72.588
  H       99.420    -292.108      71.630
  H       99.187    -293.677      72.450
  H       96.506    -288.082      64.966
  H       94.833    -288.541      65.177
  H       95.737    -289.138      63.805

 3  4  5  6  7  8  9  10  11  12  13  24  28  29  30  31  32 0
 6-311+G(2d,p)
 ****
 33  34 0
 6-311+G(2d,p)
 ****
 1  2  14  15  16  17  18  19  20  21  22  23  25  26  27 0
 3-21G
 ****
 35  36  37  38  39  40  41  42  43  44  45 0
 3-21G
 ****


