%nproc=1
%NoSave
%Mem=1900MB
#P OB98/GEN NMR

erre ene a

0 1
  C     -899.370    -524.844    -454.421
  O     -898.020    -524.896    -454.066
  H     -899.630    -525.751    -454.982
  H     -899.570    -523.978    -455.052
  H     -900.000    -524.802    -453.520
  P     -897.440    -523.655    -453.204
  C     -896.330    -524.881    -451.185
  O     -897.450    -524.126    -451.673
  C     -895.850    -524.294    -449.866
  O     -896.930    -524.284    -448.901
  C     -894.740    -525.078    -449.213
  O     -893.460    -524.841    -449.814
  C     -894.820    -524.613    -447.775
  O     -894.130    -523.366    -447.593
  C     -896.340    -524.401    -447.595
  N     -897.150    -526.383    -442.956
  C     -896.580    -525.208    -443.369
  N     -896.410    -524.765    -444.622
  C     -896.940    -525.633    -445.499
  C     -897.570    -526.848    -445.243
  C     -897.670    -527.211    -443.898
  N     -898.220    -528.398    -443.482
  N     -897.920    -527.456    -446.418
  C     -897.560    -526.633    -447.365
  N     -896.950    -525.511    -446.867
  O     -898.640    -522.591    -453.292
  O     -896.150    -523.088    -453.691
  H     -894.030    -523.248    -446.634
  H     -898.430    -521.915    -453.956
  H     -896.200    -524.590    -442.558
  H     -897.680    -526.810    -448.435
  H     -896.570    -523.486    -447.037
  H     -894.400    -525.344    -447.083
  H     -894.960    -526.173    -449.248
  H     -895.540    -523.256    -450.049
  H     -895.520    -524.844    -451.938
  H     -896.650    -525.923    -451.064
  H     -898.200    -528.630    -442.504
  H     -898.500    -529.077    -444.194
  P     -892.190    -525.686    -449.289
  C     -891.460    -526.758    -451.548
  O     -892.050    -526.945    -450.267
  O     -892.720    -526.353    -447.925
  O     -890.960    -524.893    -449.070
  H     -892.000    -526.411    -447.282
  H     -891.442    -527.691    -452.072
  H     -890.460    -526.396    -451.431
  H     -892.034    -526.047    -452.105

 6  7  8  9  10  11  12  13  14  15  25  28  32  33  34  35 0
 6-311+G(2d,p)
 ****
 36  37  40 0
 6-311+G(2d,p)
 ****
 1  2  3  4  5  16  17  18  19  20  21  22  23  24 0
 3-21G
 ****
 26  27  29  30  31  38  39 41  42  43  44  45  46  47  48 0
 3-21G
 ****


