%nproc=1
%NoSave
%Mem=1900MB
#P OB98/GEN NMR

erre ene a

0 1
  C      -45.345     183.298     -93.372
  O      -44.571     183.314     -94.552
  H      -44.759     182.838     -92.573
  H      -46.249     182.703     -93.527
  H      -45.614     184.314     -93.073
  P      -45.175     184.089     -95.821
  C      -44.835     182.631     -97.942
  O      -44.303     183.636     -97.092
  C      -43.711     181.928     -98.703
  O      -43.027     182.902     -99.532
  C      -42.670     181.271     -97.793
  O      -42.259     180.036     -98.386
  C      -41.510     182.249     -97.809
  O      -40.260     181.626     -97.520
  C      -41.622     182.841     -99.220
  N      -40.990     184.154     -99.302
  C      -39.638     184.179     -99.654
  O      -39.034     183.126     -99.869
  N      -38.986     185.384     -99.698
  C      -39.606     186.463     -99.337
  N      -38.898     187.624     -99.372
  C      -41.014     186.476     -98.892
  C      -41.640     185.300     -98.907
  O      -44.717     185.602     -95.584
  O      -46.650     183.962     -96.005
  H      -40.259     181.360     -96.574
  H      -45.369     186.230     -95.946
  H      -41.481     187.397     -98.576
  H      -42.672     185.209     -98.591
  H      -41.149     182.176     -99.955
  H      -41.678     183.029     -97.057
  H      -43.039     181.084     -96.781
  H      -44.159     181.191     -99.380
  H      -37.929     187.571     -99.665
  H      -45.514     183.098     -98.663
  H      -39.265     188.514     -99.071
  H      -45.400     181.909     -97.343
  P      -42.515     178.705     -97.529
  C      -40.478     177.168     -98.013
  O      -41.836     177.475     -98.301
  O      -44.083     178.447     -97.705
  O      -42.136     178.838     -96.090
  H      -44.550     178.643     -96.872
  H      -40.169     176.329     -98.602
  H      -40.379     176.931     -96.974
  H      -39.864     178.013     -98.246

 6  7  8  9  10  11  12  13  14  15  16  26  30  31  32  33  35 0
 6-311+G(2d,p)
 ****
 37  38 0
 6-311+G(2d,p)
 ****
 1  2  3  4  5  17  18  19  20  21  22  23  24  25 0
 3-21G
 ****
 27  28  29  34  36  39  40  41  42  43  44  45  46 0
 3-21G
 ****


