%nproc=1
%NoSave
%Mem=1900MB
#P OB98/GEN NMR

erre ene a

0 1
  C      -12.696    -899.120     244.014
  O      -13.151    -898.910     245.341
  H      -13.561    -899.320     243.376
  H      -12.042    -900.000     243.982
  H      -12.164    -898.250     243.651
  P      -12.021    -898.650     246.444
  C      -13.768    -897.140     247.650
  O      -12.797    -898.190     247.777
  C      -14.421    -896.880     249.007
  O      -13.437    -896.410     249.960
  C      -15.522    -895.830     248.976
  O      -16.758    -896.380     248.550
  C      -15.556    -895.370     250.428
  O      -16.300    -896.290     251.246
  C      -14.067    -895.390     250.794
  N      -12.938    -890.980     253.004
  C      -13.596    -892.080     253.497
  N      -14.079    -891.980     254.754
  N      -13.789    -893.190     252.823
  C      -13.283    -893.140     251.553
  C      -12.603    -892.120     250.960
  C      -12.376    -890.900     251.733
  O      -11.741    -889.910     251.364
  N      -12.233    -892.440     249.676
  C      -12.733    -893.660     249.508
  N      -13.390    -894.120     250.625
  O      -11.315    -897.300     245.945
  O      -11.025    -899.750     246.632
  H      -17.202    -896.390     250.872
  H      -10.375    -897.300     246.223
  H      -12.820    -890.170     253.564
  H      -12.622    -894.240     248.586
  H      -13.897    -895.680     251.840
  H      -16.028    -894.390     250.519
  H      -14.269    -891.090     255.180
  H      -15.244    -894.980     248.312
  H      -14.586    -892.780     255.117
  H      -14.810    -897.840     249.381
  H      -14.543    -897.460     246.934
  H      -13.281    -896.250     247.284
  P      -17.499    -895.710     247.306
  C      -19.363    -897.520     247.534
  O      -19.046    -896.140     247.401
  O      -16.970    -896.550     246.049
  O      -17.259    -894.240     247.150
  H      -17.142    -896.060     245.211
  H      -20.425    -897.639     247.584
  H      -18.919    -897.903     248.429
  H      -18.983    -898.056     246.689

 6  7  8  9  10  11  12  13  14  15  26  29  33  34 0
 6-311+G(2d,p)
 ****
 36  38  39  40  41 0
 6-311+G(2d,p)
 ****
 1  2  3  4  5  16  17  18  19  20  21  22  23  24  25 0
 3-21G
 ****
 27  28  30  31  32  35  37  42  43  44  45  46  47 0
 3-21G
 ****
 48  49 0
 3-21G
 ****


