%nproc=1
%NoSave
%Mem=1900MB
#P OB98/GEN NMR

erre ene a

0 1
  C      -52.819     323.418     -43.649
  O      -52.614     322.264     -44.443
  P      -51.261     321.428     -44.209
  C      -50.132     322.202     -46.422
  O      -50.105     322.206     -45.001
  C      -49.577     323.514     -46.968
  O      -50.180     324.643     -46.299
  C      -48.078     323.689     -46.770
  O      -47.318     323.001     -47.751
  C      -47.931     325.192     -46.940
  O      -47.921     325.531     -48.340
  C      -49.210     325.719     -46.272
  N      -48.127     329.663     -43.288
  C      -48.466     329.632     -44.627
  N      -48.458     330.817     -45.277
  N      -48.787     328.543     -45.275
  C      -48.747     327.429     -44.500
  C      -48.431     327.333     -43.162
  C      -48.062     328.550     -42.462
  O      -47.705     328.632     -41.289
  N      -48.507     326.037     -42.719
  C      -48.872     325.349     -43.786
  N      -48.987     326.140     -44.899
  O      -51.486     320.109     -45.092
  O      -50.969     321.109     -42.779
  H      -47.082     325.189     -48.705
  H      -50.862     319.413     -44.813
  H      -47.879     330.529     -42.840
  H      -49.045     324.282     -43.801
  H      -49.640     326.561     -46.821
  H      -47.004     325.580     -46.511
  H      -48.155     331.683     -44.856
  H      -47.773     323.404     -45.753
  H      -48.638     330.817     -46.275
  H      -49.835     323.577     -48.035
  H      -51.162     322.072     -46.760
  H      -49.541     321.357     -46.793
  P      -46.535     321.683     -47.274
  C      -44.295     322.958     -47.590
  O      -45.124     322.204     -46.723
  O      -46.169     320.957     -48.652
  O      -47.316     320.801     -46.355
  H      -46.076     319.998     -48.517
  H      -43.514     323.447     -46.990
  H      -44.862     323.722     -48.119
  H      -43.809     322.288     -48.313
  H      -53.753     323.870     -43.911
  H      -52.025     324.114     -43.820
  H      -52.834     323.142     -42.615

 3  4  5  6  7  8  9  10  11  12  23  26  30  31 0
 6-311+G(2d,p)
 ****
 33  35  36  37  38 0
 6-311+G(2d,p)
 ****
 1  2  13  14  15  16  17  18  19  20  21  22  24  25 0
 3-21G
 ****
 27  28  29  32  34  39  40  41  42  43  44  45  46  47  48  49 0
 3-21G
 ****


