%nproc=1
%NoSave
%Mem=1900MB
#P OB98/GEN NMR

erre ene a

0 1
  C     -653.923    -273.881    -733.671
  O     -654.367    -274.395    -732.431
  H     -654.733    -273.966    -734.401
  H     -653.071    -274.471    -734.026
  H     -653.639    -272.826    -733.584
  P     -653.419    -274.223    -731.142
  C     -651.312    -275.379    -730.221
  O     -652.315    -275.377    -731.221
  C     -651.215    -276.782    -729.590
  O     -650.958    -277.756    -730.630
  C     -650.050    -276.933    -728.605
  O     -650.342    -276.326    -727.367
  C     -649.920    -278.444    -728.558
  O     -650.889    -279.023    -727.674
  C     -650.201    -278.834    -730.013
  N     -648.998    -279.144    -730.778
  C     -648.608    -280.468    -730.827
  O     -649.245    -281.383    -730.290
  N     -647.429    -280.720    -731.477
  C     -646.555    -279.788    -731.936
  O     -645.410    -280.040    -732.275
  C     -647.044    -278.392    -731.906
  C     -648.220    -278.129    -731.335
  O     -654.124    -274.115    -729.825
  O     -652.576    -272.899    -731.470
  H     -652.942    -272.153    -730.958
  H     -650.682    -278.664    -726.777
  H     -647.124    -281.698    -731.488
  H     -646.406    -277.627    -732.336
  H     -648.557    -277.110    -731.281
  H     -650.874    -279.723    -730.052
  H     -648.927    -278.753    -728.222
  H     -649.144    -276.497    -729.036
  H     -652.160    -277.037    -729.124
  H     -651.604    -274.666    -729.424
  H     -650.365    -275.083    -730.644
  P     -649.184    -276.051    -726.294
  C     -647.412    -277.421    -725.013
  O     -648.607    -277.467    -725.819
  O     -649.530    -275.122    -725.187
  O     -647.987    -275.457    -727.196
  H     -647.642    -274.644    -726.749
  H     -647.118    -278.417    -724.754
  H     -647.605    -276.863    -724.121
  H     -646.627    -276.949    -725.566

 6  7  8  9  10  11  12  13  14  15  16  27  31  32  33  34  35 0
 6-311+G(2d,p)
 ****
 36  37 0
 6-311+G(2d,p)
 ****
 1  2  3  4  5  17  18  19  20  21  22  23  24  25 0
 3-21G
 ****
 26  28  29  30  38  39  40  41  42  43  44  45 0
 3-21G
 ****


