%nproc=1
%NoSave
%Mem=1900MB
#P OB98/GEN NMR

erre ene a

0 1
  C     1086.920    -148.699    -947.246
  O     1086.546    -148.620    -948.613
  P     1087.736    -148.537    -949.692
  C     1087.951    -145.941    -949.455
  O     1087.651    -147.037    -950.298
  C     1088.232    -144.690    -950.244
  O     1089.368    -144.877    -951.093
  C     1087.096    -144.262    -951.172
  O     1086.087    -143.517    -950.493
  C     1087.845    -143.355    -952.147
  O     1088.038    -142.060    -951.549
  C     1089.188    -144.077    -952.296
  N     1089.303    -144.171    -957.399
  C     1089.173    -143.142    -956.532
  N     1089.161    -143.215    -955.184
  C     1089.218    -144.477    -954.748
  C     1089.298    -145.625    -955.538
  C     1089.360    -145.432    -956.948
  N     1089.505    -146.471    -957.830
  N     1089.354    -146.753    -954.733
  C     1089.301    -146.310    -953.534
  N     1089.241    -144.948    -953.465
  O     1087.211    -149.450    -950.907
  O     1089.081    -148.968    -949.202
  H     1088.730    -142.156    -950.852
  H     1087.972    -149.753    -951.442
  H     1089.103    -142.160    -956.957
  H     1089.335    -146.927    -952.625
  H     1090.038    -143.384    -952.365
  H     1087.293    -143.193    -953.076
  H     1086.685    -145.108    -951.731
  H     1088.474    -143.863    -949.534
  H     1088.833    -146.188    -948.844
  H     1089.711    -146.247    -958.796
  H     1089.765    -147.374    -957.474
  H     1087.106    -145.777    -948.753
  P     1084.557    -143.848    -950.930
  C     1084.920    -142.903    -953.346
  O     1084.241    -142.798    -952.102
  O     1083.705    -143.288    -949.684
  O     1084.286    -145.292    -951.217
  H     1082.849    -143.778    -949.633
  H     1084.382    -142.376    -954.117
  H     1084.972    -143.977    -953.647
  H     1085.945    -142.517    -953.238
  H     1086.041    -148.749    -946.638
  H     1087.488    -147.832    -946.981
  H     1087.513    -149.576    -947.088

 3  4  5  6  7  8  9  10  11  12  22  25  29  30  31  32 0
 6-311+G(2d,p)
 ****
 33  36  37 0
 6-311+G(2d,p)
 ****
 1  2  13  14  15  16  17  18  19  20  21  23  24  26 0
 3-21G
 ****
 27  28  34  35  38  39  40  41  42  43  44  45  46  47  48 0
 3-21G
 ****


