%nproc=1
%NoSave
%Mem=1900MB
#P OB98/GEN NMR

erre ene a

0 1
  C      376.869    -466.794    -769.318
  O      377.761    -467.569    -770.102
  P      377.381    -467.814    -771.637
  C      375.642    -469.278    -772.917
  O      376.239    -468.929    -771.668
  C      374.554    -470.333    -772.692
  O      373.639    -469.897    -771.653
  C      373.687    -470.588    -773.914
  O      374.339    -471.428    -774.853
  C      372.448    -471.220    -773.301
  O      372.640    -472.623    -773.078
  C      372.348    -470.463    -771.958
  N      371.292    -469.436    -771.969
  C      370.003    -469.890    -771.748
  O      369.730    -471.080    -771.567
  N      369.020    -468.933    -771.769
  C      369.201    -467.608    -772.038
  O      368.276    -466.816    -772.103
  C      370.595    -467.193    -772.295
  C      371.557    -468.115    -772.260
  O      378.658    -468.565    -772.235
  O      377.052    -466.568    -772.405
  H      372.615    -473.050    -773.956
  H      378.810    -468.286    -773.165
  H      368.078    -469.242    -771.588
  H      370.771    -466.147    -772.528
  H      372.579    -467.827    -772.457
  H      372.129    -471.164    -771.143
  H      371.570    -471.108    -773.933
  H      373.405    -469.631    -774.388
  H      375.028    -471.264    -772.365
  H      376.417    -469.684    -773.574
  H      375.218    -468.383    -773.377
  P      373.761    -471.442    -776.351
  C      371.258    -471.362    -777.078
  O      372.229    -471.882    -776.204
  O      374.515    -472.725    -776.946
  O      374.019    -470.165    -777.083
  H      374.672    -473.410    -776.266
  H      371.658    -471.218    -778.086
  H      370.892    -470.405    -776.695
  H      370.420    -472.063    -777.127
  H      377.248    -466.714    -768.321
  H      375.909    -467.266    -769.298
  H      376.777    -465.817    -769.744

 3  4  5  6  7  8  9  10  11  12  13  23  28  29  30  31  32 0
 6-311+G(2d,p)
 ****
 33  34 0
 6-311+G(2d,p)
 ****
 1  2  14  15  16  17  18  19  20  21  22  24  25  26 0
 3-21G
 ****
 27  35  36  37  38  39  40  41  42  43  44  45 0
 3-21G
 ****


