%nproc=1
%NoSave
%Mem=1900MB
#P OB98/GEN NMR

erre ene a

0 1
  C     -154.006    -299.031      29.223
  O     -153.895    -297.959      30.152
  P     -153.861    -298.319      31.719
  C     -156.450    -298.239      31.702
  O     -155.258    -297.827      32.344
  C     -157.668    -297.498      32.268
  O     -158.832    -297.832      31.460
  C     -158.008    -297.844      33.722
  O     -158.548    -296.660      34.325
  C     -159.109    -298.881      33.586
  O     -159.896    -298.989      34.767
  C     -159.851    -298.330      32.367
  N     -163.938    -301.379      32.803
  C     -163.411    -300.457      33.635
  N     -162.316    -299.682      33.452
  C     -161.752    -299.939      32.260
  C     -162.158    -300.871      31.319
  C     -163.308    -301.620      31.621
  N     -163.852    -302.549      30.770
  N     -161.305    -300.858      30.223
  C     -160.406    -299.936      30.500
  N     -160.658    -299.340      31.709
  O     -152.797    -297.269      32.300
  O     -153.469    -299.720      32.045
  H     -160.264    -298.106      34.968
  H     -151.991    -297.737      32.585
  H     -163.939    -300.317      34.584
  H     -159.573    -299.675      29.875
  H     -160.509    -297.488      32.629
  H     -158.671    -299.858      33.368
  H     -157.156    -298.214      34.305
  H     -157.497    -296.424      32.154
  H     -156.588    -299.314      31.877
  H     -164.750    -302.944      31.000
  H     -163.501    -302.603      29.812
  H     -156.372    -298.075      30.624
  P     -157.964    -296.237      35.755
  C     -160.313    -296.469      36.835
  O     -159.185    -295.648      36.602
  O     -157.063    -294.956      35.423
  O     -157.162    -297.316      36.427
  H     -156.345    -294.879      36.077
  H     -160.741    -296.230      37.809
  H     -160.053    -297.534      36.816
  H     -161.061    -296.277      36.055
  H     -154.016    -298.640      28.227
  H     -154.914    -299.568      29.405
  H     -153.172    -299.691      29.339

 3  4  5  6  7  8  9  10  11  12  22  25  29  30  31  32 0
 6-311+G(2d,p)
 ****
 33  36  37 0
 6-311+G(2d,p)
 ****
 1  2  13  14  15  16  17  18  19  20  21  23  24  26 0
 3-21G
 ****
 27  28  34  35  38  39  40  41  42  43  44  45  46  47  48 0
 3-21G
 ****


