%nproc=1
%NoSave
%Mem=1900MB
#P OB98/GEN NMR

erre ene a

0 1
  C     -285.090      55.608     193.303
  O     -284.013      55.350     192.431
  P     -282.672      54.659     192.975
  C     -281.127      55.116     194.982
  O     -282.047      55.675     194.050
  C     -280.845      56.111     196.104
  O     -282.047      56.392     196.868
  C     -279.850      55.613     197.141
  O     -278.518      55.412     196.722
  C     -280.079      56.603     198.272
  O     -279.382      57.827     198.042
  C     -281.610      56.828     198.179
  N     -282.329      56.136     199.246
  C     -282.105      56.604     200.536
  O     -281.355      57.545     200.797
  N     -282.755      55.938     201.537
  C     -283.552      54.840     201.381
  O     -284.067      54.259     202.330
  C     -283.736      54.379     199.999
  C     -283.128      55.035     199.008
  O     -281.718      54.207     191.921
  O     -283.219      53.475     193.905
  H     -279.744      58.494     198.657
  H     -283.777      53.768     194.649
  H     -282.596      56.252     202.481
  H     -284.373      53.518     199.841
  H     -283.248      54.713     197.979
  H     -281.843      57.897     198.249
  H     -279.735      56.211     199.234
  H     -280.196      54.634     197.501
  H     -280.521      57.053     195.653
  H     -280.190      54.887     194.464
  H     -281.531      54.176     195.375
  P     -277.528      54.361     197.411
  C     -276.859      53.962     199.882
  O     -277.153      54.901     198.872
  O     -276.412      53.838     196.566
  O     -278.528      53.153     197.753
  H     -278.038      52.311     197.708
  H     -276.674      54.499     200.815
  H     -275.963      53.393     199.625
  H     -277.703      53.284     200.034
  H     -285.887      56.069     192.758
  H     -284.767      56.263     194.085
  H     -285.433      54.688     193.728

 3  4  5  6  7  8  9  10  11  12  13  23  28  29  30  31  32 0
 6-311+G(2d,p)
 ****
 33  34 0
 6-311+G(2d,p)
 ****
 1  2  14  15  16  17  18  19  20  21  22  24  25  26  27 0
 3-21G
 ****
 35  36  37  38  39  40  41  42  43  44  45 0
 3-21G
 ****


