%nproc=1
%NoSave
%Mem=1900MB
#P OB98/GEN NMR

erre ene a

0 1
  C       29.781     214.855     120.913
  O       28.999     215.445     119.897
  H       29.959     215.600     121.692
  H       30.743     214.538     120.503
  H       29.270     213.999     121.358
  P       28.322     214.500     118.797
  C       26.294     212.907     118.692
  O       27.039     213.823     119.482
  C       25.074     212.391     119.466
  O       25.528     211.746     120.684
  C       24.150     213.538     119.886
  O       22.794     213.116     120.012
  C       24.681     213.909     121.261
  O       23.715     214.576     122.074
  C       25.105     212.545     121.801
  N       26.341     213.181     126.704
  C       25.125     213.370     126.079
  N       24.102     213.779     126.867
  N       24.933     213.196     124.798
  C       26.058     212.857     124.124
  C       27.324     212.663     124.628
  C       27.515     212.825     126.054
  O       28.576     212.693     126.655
  N       28.213     212.336     123.635
  C       27.490     212.336     122.534
  N       26.170     212.622     122.782
  O       29.340     213.269     118.679
  O       28.073     215.136     117.463
  H       23.376     215.334     121.563
  H       29.229     212.818     117.824
  H       26.427     213.300     127.698
  H       27.867     212.121     121.542
  H       24.257     212.035     122.275
  H       25.520     214.596     121.130
  H       24.257     214.111     127.807
  H       24.195     214.386     119.207
  H       23.310     214.216     126.389
  H       24.553     211.628     118.878
  H       26.966     212.084     118.440
  H       25.987     213.375     117.756
  P       21.765     213.488     118.842
  C       21.381     212.196     116.565
  O       22.252     212.843     117.466
  O       21.985     215.056     118.629
  O       20.337     213.159     119.149
  H       21.176     215.548     118.865
  H       21.937     211.848     115.719
  H       20.629     212.884     116.239
  H       20.916     211.365     117.053

 6  7  8  9  10  11  12  13  14  15  26  29  33  34 0
 6-311+G(2d,p)
 ****
 36  38  39  40  41 0
 6-311+G(2d,p)
 ****
 1  2  3  4  5  16  17  18  19  20  21  22  23  24  25 0
 3-21G
 ****
 27  28  30  31  32  35  37  42  43  44  45  46  47 0
 3-21G
 ****
 48  49 0
 3-21G
 ****


