%nproc=1
%NoSave
%Mem=1900MB
#P OB98/GEN NMR

erre ene a

0 1
  C      384.023     424.096     250.152
  O      382.953     424.075     249.224
  H      384.098     425.103     250.572
  H      384.960     423.848     249.651
  H      383.832     423.390     250.964
  P      382.691     422.682     248.472
  C      384.615     422.963     246.759
  O      383.213     422.878     246.966
  C      384.917     423.798     245.522
  O      384.270     423.244     244.357
  C      384.475     425.257     245.617
  O      385.433     426.036     246.314
  C      384.366     425.633     244.144
  O      385.658     425.950     243.581
  C      383.807     424.345     243.522
  N      379.828     426.035     240.905
  C      381.179     426.210     240.688
  N      381.524     427.000     239.642
  N      382.113     425.671     241.430
  C      381.626     424.941     242.457
  C      380.308     424.676     242.766
  C      379.282     425.255     241.918
  O      378.075     425.089     242.021
  N      380.211     423.872     243.868
  C      381.457     423.677     244.249
  N      382.353     424.319     243.431
  O      381.092     422.641     248.305
  O      383.195     421.465     249.177
  H      385.988     426.768     243.994
  H      380.795     421.714     248.326
  H      379.158     426.468     240.286
  H      381.761     423.087     245.103
  H      384.189     424.171     242.512
  H      383.735     426.511     243.998
  H      380.883     427.691     239.265
  H      383.482     425.330     246.085
  H      382.512     427.153     239.490
  H      386.001     423.741     245.345
  H      385.020     421.957     246.623
  H      385.082     423.420     247.642
  P      384.885     427.120     247.368
  C      384.611     428.871     245.456
  O      385.182     428.564     246.727
  O      385.937     427.030     248.567
  O      383.494     426.883     247.829
  H      385.569     427.432     249.370
  H      384.898     429.860     245.166
  H      383.545     428.813     245.521
  H      384.963     428.170     244.728

 6  7  8  9  10  11  12  13  14  15  26  29  33  34 0
 6-311+G(2d,p)
 ****
 36  38  39  40  41 0
 6-311+G(2d,p)
 ****
 1  2  3  4  5  16  17  18  19  20  21  22  23  24  25 0
 3-21G
 ****
 27  28  30  31  32  35  37  42  43  44  45  46  47 0
 3-21G
 ****
 48  49 0
 3-21G
 ****


