%nproc=1
%NoSave
%Mem=1900MB
#P OB98/GEN NMR

erre ene a

0 1
  C       33.632      73.382     133.684
  O       33.610      74.415     132.702
  P       32.481      75.537     132.589
  C       32.428      75.443     129.969
  O       32.598      76.219     131.146
  C       32.902      76.166     128.696
  O       34.352      76.179     128.658
  C       32.442      75.412     127.448
  O       31.139      75.612     126.936
  C       33.550      75.640     126.430
  O       33.284      76.750     125.570
  C       34.775      75.925     127.302
  N       37.419      72.580     124.475
  C       36.439      73.471     124.083
  N       36.077      73.436     122.783
  N       35.854      74.306     124.899
  C       36.246      74.176     126.186
  C       37.193      73.319     126.698
  C       37.878      72.436     125.777
  O       38.762      71.636     126.069
  N       37.310      73.454     128.058
  C       36.420      74.373     128.370
  N       35.752      74.849     127.265
  O       32.361      76.452     133.761
  O       31.117      74.681     132.495
  H       33.942      76.738     124.853
  H       30.422      75.214     132.934
  H       37.854      71.975     123.799
  H       36.224      74.733     129.373
  H       35.299      76.829     126.967
  H       33.663      74.764     125.780
  H       36.401      72.738     122.134
  H       32.485      74.341     127.688
  H       35.215      73.929     122.540
  H       32.593      77.215     128.707
  H       31.363      75.204     129.899
  H       32.955      74.493     130.069
  P       30.003      74.496     126.774
  C       29.909      75.117     124.290
  O       29.158      74.838     125.458
  O       28.967      74.826     127.949
  O       30.483      73.085     126.868
  H       28.378      74.066     128.107
  H       29.265      75.626     123.568
  H       30.266      74.182     123.851
  H       30.762      75.762     124.520
  H       34.495      72.767     133.535
  H       32.749      72.785     133.594
  H       33.669      73.819     134.660

 3  4  5  6  7  8  9  10  11  12  23  26  30  31 0
 6-311+G(2d,p)
 ****
 33  35  36  37  38 0
 6-311+G(2d,p)
 ****
 1  2  13  14  15  16  17  18  19  20  21  22  24  25 0
 3-21G
 ****
 27  28  29  32  34  39  40  41  42  43  44  45  46  47  48  49 0
 3-21G
 ****


