%nproc=1
%NoSave
%Mem=1900MB
#P OB98/GEN NMR

erre ene a

0 1
  C      417.869    -329.184    -220.875
  O      417.040    -328.216    -221.490
  P      415.627    -328.701    -222.105
  C      414.499    -327.854    -219.899
  O      414.662    -328.914    -220.835
  C      413.245    -328.087    -219.037
  O      412.093    -328.302    -219.909
  C      413.346    -329.281    -218.071
  O      412.656    -328.891    -216.861
  C      412.578    -330.363    -218.807
  O      412.100    -331.370    -217.903
  C      411.465    -329.533    -219.458
  N      410.819    -330.219    -220.571
  C      409.742    -331.043    -220.255
  O      409.369    -331.261    -219.094
  N      409.122    -331.651    -221.321
  C      409.511    -331.593    -222.625
  O      408.936    -332.146    -223.548
  C      410.739    -330.797    -222.889
  C      411.318    -330.174    -221.860
  O      416.009    -330.184    -222.557
  O      415.109    -327.798    -223.169
  H      416.629    -330.642    -221.959
  H      411.687    -330.925    -217.123
  H      408.316    -332.219    -221.115
  H      411.128    -330.785    -223.889
  H      412.243    -329.604    -222.007
  H      410.694    -329.261    -218.728
  H      413.217    -330.842    -219.564
  H      414.372    -329.554    -217.850
  H      413.066    -327.166    -218.459
  H      414.389    -326.889    -220.419
  H      415.412    -327.793    -219.276
  P      413.339    -327.778    -215.932
  C      412.160    -325.857    -217.282
  O      413.363    -326.400    -216.753
  O      414.874    -328.256    -215.983
  O      412.808    -327.721    -214.534
  H      415.175    -328.451    -216.878
  H      412.362    -324.822    -217.581
  H      411.384    -325.848    -216.517
  H      411.837    -326.436    -218.138
  H      418.762    -328.714    -220.519
  H      418.123    -329.940    -221.588
  H      417.348    -329.629    -220.053

 3  4  5  6  7  8  9  10  11  12  13  24  28  29  30  31  32 0
 6-311+G(2d,p)
 ****
 33  34 0
 6-311+G(2d,p)
 ****
 1  2  14  15  16  17  18  19  20  21  22  23  25  26  27 0
 3-21G
 ****
 35  36  37  38  39  40  41  42  43  44  45 0
 3-21G
 ****


