%nproc=1
%NoSave
%Mem=1900MB
#P OB98/GEN NMR

erre ene a

0 1
  C       66.481     -34.731      54.026
  O       67.626     -35.376      53.498
  H       65.643     -35.432      54.002
  H       66.228     -33.858      53.418
  H       66.663     -34.431      55.060
  P       68.980     -34.514      53.467
  C       68.271     -33.994      51.031
  O       68.761     -33.478      52.262
  C       67.909     -32.855      50.081
  O       66.826     -32.073      50.617
  C       69.043     -31.870      49.819
  O       69.939     -32.378      48.845
  C       68.263     -30.672      49.299
  O       67.923     -30.877      47.914
  C       66.988     -30.702      50.161
  N       65.370     -26.221      52.076
  C       65.323     -26.733      50.826
  N       65.810     -27.910      50.382
  C       66.399     -28.591      51.380
  C       66.522     -28.196      52.704
  C       65.966     -26.952      53.046
  N       66.007     -26.438      54.325
  N       67.189     -29.153      53.439
  C       67.416     -30.132      52.586
  N       66.989     -29.825      51.317
  O       70.245     -35.300      53.443
  O       68.780     -33.586      54.758
  H       67.343     -30.140      47.643
  H       67.851     -33.306      54.836
  H       64.826     -26.114      50.085
  H       67.868     -31.084      52.838
  H       66.097     -30.444      49.577
  H       68.840     -29.746      49.352
  H       69.553     -31.591      50.748
  H       67.554     -33.301      49.143
  H       67.395     -34.627      51.204
  H       65.739     -25.473      54.447
  H       66.558     -26.926      55.016
  H       69.063     -34.611      50.596
  P       71.489     -31.962      48.864
  C       71.146     -30.668      46.668
  O       71.607     -30.605      48.013
  O       72.434     -33.037      48.452
  O       71.755     -31.475      50.363
  H       72.641     -31.760      50.660
  H       71.273     -29.713      46.202
  H       70.110     -30.935      46.658
  H       71.709     -31.404      46.132

 6  7  8  9  10  11  12  13  14  15  25  28  32  33  34  35 0
 6-311+G(2d,p)
 ****
 36  39  40 0
 6-311+G(2d,p)
 ****
 1  2  3  4  5  16  17  18  19  20  21  22  23  24 0
 3-21G
 ****
 26  27  29  30  31  37  38  41  42  43  44  45  46  47 0
 3-21G
 ****
 48 0
 3-21G
 ****


