%nproc=1
%NoSave
%Mem=1900MB
#P OB98/GEN NMR

erre ene a

0 1
  C       63.587     260.461      66.606
  O       64.729     261.070      65.980
  P       65.003     262.637      66.208
  C       65.318     263.439      63.737
  O       64.513     263.437      64.906
  C       64.683     264.323      62.658
  O       63.450     263.740      62.185
  C       64.303     265.719      63.139
  O       65.430     266.569      63.245
  C       63.318     266.150      62.056
  O       64.009     266.655      60.902
  C       62.609     264.820      61.726
  N       61.271     264.737      62.298
  C       60.215     265.072      61.455
  O       60.374     265.476      60.306
  N       58.960     264.958      61.993
  C       58.669     264.616      63.285
  O       57.525     264.552      63.715
  C       59.828     264.354      64.151
  C       61.054     264.431      63.624
  O       66.599     262.720      66.063
  O       64.562     263.190      67.523
  H       63.324     266.949      60.271
  H       66.934     263.469      66.589
  H       58.182     265.166      61.392
  H       59.644     264.104      65.187
  H       61.921     264.239      64.254
  H       62.530     264.695      60.637
  H       62.640     266.938      62.398
  H       63.773     265.652      64.097
  H       65.379     264.387      61.811
  H       65.404     262.419      63.355
  H       66.318     263.805      63.995
  P       65.858     267.021      64.727
  C       63.963     268.822      64.679
  O       64.559     267.728      65.343
  O       66.871     268.218      64.400
  O       66.446     265.909      65.527
  H       66.612     268.706      63.600
  H       64.059     268.736      63.593
  H       64.441     269.750      65.013
  H       62.901     268.857      64.940
  H       63.553     259.422      66.353
  H       62.694     260.941      66.263
  H       63.664     260.567      67.668

 3  4  5  6  7  8  9  10  11  12  13  23  28  29  30  31  32 0
 6-311+G(2d,p)
 ****
 33  34 0
 6-311+G(2d,p)
 ****
 1  2  14  15  16  17  18  19  20  21  22  24  25  26 0
 3-21G
 ****
 27  35  36  37  38  39  40  41  42  43  44  45 0
 3-21G
 ****


