%nproc=1
%NoSave
%Mem=1900MB
#P OB98/GEN NMR

erre ene a

0 1
  C        0.568      81.792    -195.315
  O       -0.082      80.777    -196.052
  H        1.181      81.322    -194.541
  H       -0.168      82.439    -194.831
  H        1.217      82.387    -195.962
  P       -0.944      81.187    -197.339
  C        0.846      80.606    -199.098
  O        0.097      81.639    -198.471
  C        0.083      80.071    -200.307
  O       -0.197      81.142    -201.235
  C        0.849      79.021    -201.104
  O        0.842      77.776    -200.435
  C        0.084      79.057    -202.418
  O       -1.140      78.311    -202.323
  C       -0.212      80.569    -202.562
  N        0.737      81.252    -203.443
  C        0.399      81.298    -204.791
  O       -0.627      80.800    -205.248
  N        1.313      81.903    -205.614
  C        2.540      82.369    -205.237
  O        3.411      82.699    -206.034
  C        2.808      82.361    -203.791
  C        1.916      81.798    -202.974
  O       -2.064      82.142    -197.092
  O       -1.484      79.783    -197.891
  H       -2.413      79.664    -197.615
  H       -1.628      78.475    -203.154
  H        1.100      81.900    -206.600
  H        3.745      82.782    -203.444
  H        2.108      81.754    -201.908
  H       -1.222      80.725    -202.965
  H        0.656      78.631    -203.244
  H        1.876      79.361    -201.284
  H       -0.876      79.669    -199.955
  H        0.995      79.796    -198.374
  H        1.823      81.001    -199.396
  P        1.934      76.654    -200.760
  C        3.807      77.598    -199.288
  O        3.386      77.317    -200.615
  O        1.717      75.912    -202.037
  O        1.865      75.661    -199.505
  H        1.734      74.748    -199.827
  H        4.783      78.036    -199.309
  H        3.835      76.690    -198.723
  H        3.120      78.280    -198.833

 6  7  8  9  10  11  12  13  14  15  16  27  31  32  33  34  35 0
 6-311+G(2d,p)
 ****
 36  37 0
 6-311+G(2d,p)
 ****
 1  2  3  4  5  17  18  19  20  21  22  23  24  25 0
 3-21G
 ****
 26  28  29  30  38  39  40  41  42  43  44  45 0
 3-21G
 ****


