%nproc=1
%NoSave
%Mem=1900MB
#P OB98/GEN NMR

erre ene a

0 1
  C     -110.349    -122.107     -42.199
  O     -111.205    -122.883     -41.388
  H     -110.432    -121.061     -41.892
  H     -110.657    -122.193     -43.245
  H     -109.307    -122.422     -42.096
  P     -110.967    -124.463     -41.309
  C     -109.524    -124.227     -39.183
  O     -109.592    -124.713     -40.517
  C     -109.180    -125.338     -38.188
  O     -107.993    -126.040     -38.616
  C     -108.868    -124.792     -36.795
  O     -109.995    -124.553     -35.971
  C     -107.993    -125.900     -36.215
  O     -108.798    -126.939     -35.633
  C     -107.248    -126.423     -37.446
  N     -102.799    -125.612     -35.068
  C     -103.988    -126.086     -34.549
  N     -104.008    -126.320     -33.218
  N     -105.057    -126.293     -35.271
  C     -104.919    -125.926     -36.567
  C     -103.795    -125.432     -37.193
  C     -102.598    -125.258     -36.395
  O     -101.521    -124.833     -36.804
  N     -104.030    -125.176     -38.523
  C     -105.311    -125.444     -38.683
  N     -105.886    -125.929     -37.530
  O     -110.576    -124.861     -42.813
  O     -112.139    -125.264     -40.828
  H     -108.211    -127.557     -35.163
  H     -110.810    -125.791     -42.982
  H     -101.999    -125.498     -34.471
  H     -105.861    -125.331     -39.610
  H     -107.194    -127.519     -37.447
  H     -107.339    -125.526     -35.420
  H     -103.249    -126.064     -32.605
  H     -108.266    -123.881     -36.867
  H     -104.919    -126.409     -32.764
  H     -109.998    -126.067     -38.164
  H     -110.506    -123.811     -38.951
  H     -108.800    -123.411     -39.112
  P     -109.960    -123.375     -34.888
  C     -111.369    -121.886     -36.495
  O     -110.223    -122.006     -35.677
  O     -108.412    -123.299     -34.496
  O     -110.825    -123.593     -33.694
  H     -108.244    -123.810     -33.681
  H     -111.387    -120.914     -36.943
  H     -112.248    -122.021     -35.900
  H     -111.340    -122.632     -37.262

 6  7  8  9  10  11  12  13  14  15  26  29  33  34 0
 6-311+G(2d,p)
 ****
 36  38  39  40  41 0
 6-311+G(2d,p)
 ****
 1  2  3  4  5  16  17  18  19  20  21  22  23  24  25 0
 3-21G
 ****
 27  28  30  31  32  35  37  42  43  44  45  46  47 0
 3-21G
 ****
 48  49 0
 3-21G
 ****


