%nproc=1
%NoSave
%Mem=1900MB
#P OB98/GEN NMR

erre ene a

0 1
  C       98.272     524.214    -990.224
  O       97.776     523.377    -989.191
  P       96.210     523.354    -988.852
  C       94.491     525.261    -988.544
  O       95.844     524.858    -988.395
  C       94.352     526.774    -988.383
  O       95.134     527.465    -989.381
  C       92.924     527.291    -988.546
  O       92.173     527.035    -987.373
  C       93.177     528.764    -988.817
  O       93.384     529.502    -987.602
  C       94.469     528.718    -989.661
  N       94.220     528.889    -991.093
  C       93.391     529.972    -991.436
  O       92.891     530.684    -990.561
  N       93.092     530.169    -992.766
  C       93.576     529.360    -993.668
  N       93.244     529.618    -994.957
  C       94.427     528.204    -993.329
  C       94.705     528.023    -992.039
  O       95.769     522.280    -987.920
  O       95.519     523.255    -990.303
  H       93.954     528.936    -987.038
  H       95.612     522.353    -990.683
  H       94.792     527.541    -994.105
  H       95.317     527.196    -991.710
  H       95.168     529.503    -989.340
  H       92.338     529.237    -989.346
  H       92.459     526.816    -989.423
  H       94.745     527.045    -987.389
  H       92.639     530.399    -995.134
  H       93.892     524.762    -987.779
  H       93.530     529.027    -995.728
  H       94.128     524.944    -989.534
  P       90.584     527.213    -987.395
  C       89.022     528.962    -988.427
  O       90.265     528.725    -987.803
  O       89.859     526.706    -986.188
  O       90.126     526.382    -988.699
  H       89.339     525.846    -988.485
  H       88.779     530.026    -988.344
  H       88.226     528.390    -987.951
  H       89.084     528.696    -989.486
  H       99.332     524.094    -990.302
  H       98.044     525.234    -989.996
  H       97.813     523.945    -991.152

 3  4  5  6  7  8  9  10  11  12  13  23  27  28  29  30  32 0
 6-311+G(2d,p)
 ****
 34  35 0
 6-311+G(2d,p)
 ****
 1  2  14  15  16  17  18  19  20  21  22  24  25  26 0
 3-21G
 ****
 31  33  36  37  38  39  40  41  42  43  44  45  46 0
 3-21G
 ****


