%nproc=1
%NoSave
%Mem=1900MB
#P OB98/GEN NMR

erre ene a

0 1
  C     -100.461      82.295     340.248
  O     -100.905      83.499     340.855
  P     -101.784      84.506     339.965
  C     -104.045      83.175     340.182
  O     -102.978      83.622     339.360
  C     -105.303      84.004     339.911
  O     -105.134      85.338     340.437
  C     -105.634      84.187     338.436
  O     -106.230      83.023     337.878
  C     -106.553      85.406     338.489
  O     -107.880      85.014     338.870
  C     -105.902      86.241     339.610
  N     -105.071      87.334     339.106
  C     -105.734      88.521     338.808
  O     -106.944      88.673     338.954
  N     -104.948      89.534     338.317
  C     -103.614      89.453     338.043
  O     -102.969      90.379     337.562
  C     -102.977      88.164     338.346
  C     -103.723      87.180     338.855
  O     -100.793      84.748     338.731
  O     -102.193      85.735     340.700
  H     -100.194      83.993     338.595
  H     -108.383      84.895     338.041
  H     -105.403      90.413     338.119
  H     -101.921      88.060     338.132
  H     -103.273      86.221     339.076
  H     -106.672      86.667     340.262
  H     -106.626      85.921     337.527
  H     -104.725      84.438     337.877
  H     -106.143      83.537     340.440
  H     -103.756      83.281     341.233
  H     -104.233      82.115     339.976
  P     -106.192      82.897     336.278
  C     -103.763      81.935     336.381
  O     -104.647      82.907     335.862
  O     -106.730      84.338     335.838
  O     -106.994      81.749     335.750
  H     -106.354      85.059     336.370
  H     -102.883      81.879     335.735
  H     -104.234      80.948     336.423
  H     -103.444      82.232     337.384
  H      -99.892      81.728     340.955
  H      -99.849      82.527     339.401
  H     -101.307      81.722     339.931

 3  4  5  6  7  8  9  10  11  12  13  24  28  29  30  31  32 0
 6-311+G(2d,p)
 ****
 33  34 0
 6-311+G(2d,p)
 ****
 1  2  14  15  16  17  18  19  20  21  22  23  25  26  27 0
 3-21G
 ****
 35  36  37  38  39  40  41  42  43  44  45 0
 3-21G
 ****


