%nproc=1
%NoSave
%Mem=1900MB
#P OB98/GEN NMR

erre ene a

0 1
  C      343.865    -781.637     577.539
  O      343.504    -782.944     577.148
  H      344.881    -781.657     577.934
  H      343.186    -781.280     578.319
  H      343.830    -780.964     576.682
  P      342.041    -783.147     576.507
  C      340.975    -783.575     578.848
  O      341.262    -784.092     577.553
  C      340.672    -784.711     579.824
  O      339.673    -785.584     579.234
  C      341.892    -785.563     580.170
  O      341.885    -785.848     581.575
  C      341.692    -786.839     579.376
  O      342.357    -787.957     579.971
  C      340.166    -786.939     579.295
  N      339.728    -787.717     578.131
  C      339.522    -789.087     578.336
  O      339.710    -789.588     579.448
  N      339.146    -789.864     577.271
  C      339.061    -789.333     576.087
  N      338.708    -790.164     575.061
  C      339.322    -787.903     575.820
  C      339.650    -787.163     576.878
  O      342.328    -784.116     575.269
  O      341.328    -781.889     576.151
  H      343.331    -787.827     579.862
  H      341.555    -784.157     574.660
  H      339.256    -787.514     574.811
  H      339.853    -786.103     576.765
  H      339.760    -787.406     580.205
  H      342.114    -786.706     578.365
  H      342.831    -785.082     579.912
  H      340.205    -784.288     580.726
  H      338.548    -791.143     575.294
  H      340.109    -782.895     578.779
  H      338.641    -789.868     574.099
  H      341.848    -783.011     579.205
  P      342.839    -784.906     582.484
  C      343.843    -786.744     584.013
  O      342.991    -785.618     583.912
  O      341.935    -783.621     582.772
  O      344.131    -784.559     581.813
  H      342.181    -782.883     582.173
  H      343.839    -787.105     585.020
  H      344.838    -786.464     583.738
  H      343.495    -787.514     583.357

 6  7  8  9  10  11  12  13  14  15  16  26  30  31  32  33  35 0
 6-311+G(2d,p)
 ****
 37  38 0
 6-311+G(2d,p)
 ****
 1  2  3  4  5  17  18  19  20  21  22  23  24  25 0
 3-21G
 ****
 27  28  29  34  36  39  40  41  42  43  44  45  46 0
 3-21G
 ****


