%nproc=1
%NoSave
%Mem=1900MB
#P OB98/GEN NMR

erre ene a

0 1
  C      354.609      -3.161    -146.401
  O      353.528      -2.537    -147.114
  P      353.408      -2.529    -148.714
  C      354.792      -0.345    -148.892
  O      354.654      -1.701    -149.302
  C      356.050       0.285    -149.494
  O      357.226      -0.156    -148.781
  C      356.331      -0.094    -150.944
  O      355.454       0.544    -151.855
  C      357.797       0.328    -151.078
  O      357.916       1.719    -151.389
  C      358.352       0.051    -149.670
  N      359.262      -1.085    -149.623
  C      360.626      -0.796    -149.768
  O      360.997       0.352    -149.998
  N      361.527      -1.824    -149.655
  C      361.100      -3.045    -149.520
  N      362.041      -4.026    -149.402
  C      359.673      -3.404    -149.504
  C      358.817      -2.385    -149.558
  O      352.085      -2.058    -149.218
  O      353.701      -4.039    -149.166
  H      353.257      -4.214    -150.018
  H      357.492       2.214    -150.658
  H      359.361      -4.438    -149.440
  H      357.746      -2.561    -149.537
  H      358.861       0.943    -149.281
  H      358.313      -0.224    -151.875
  H      356.257      -1.185    -151.052
  H      355.967       1.378    -149.396
  H      363.014      -3.741    -149.407
  H      354.871      -0.317    -147.797
  H      361.822      -5.002    -149.273
  H      353.896       0.215    -149.181
  P      354.419      -0.392    -152.649
  C      356.030      -0.629    -154.676
  O      355.266      -1.281    -153.676
  O      353.634       0.640    -153.588
  O      353.487      -1.159    -151.776
  H      352.688       0.386    -153.633
  H      356.872      -1.265    -154.950
  H      356.419       0.335    -154.324
  H      355.407      -0.467    -155.557
  H      354.464      -3.031    -145.349
  H      355.535      -2.711    -146.692
  H      354.632      -4.206    -146.632

 3  4  5  6  7  8  9  10  11  12  13  24  27  28  29  30  32 0
 6-311+G(2d,p)
 ****
 34  35 0
 6-311+G(2d,p)
 ****
 1  2  14  15  16  17  18  19  20  21  22  23  25  26 0
 3-21G
 ****
 31  33  36  37  38  39  40  41  42  43  44  45  46 0
 3-21G
 ****


