%nproc=1
%NoSave
%Mem=1900MB
#P OB98/GEN NMR

erre ene a

0 1
  C     -248.093     525.440    -166.684
  O     -247.366     526.456    -167.339
  H     -249.039     525.291    -167.210
  H     -248.307     525.742    -165.654
  H     -247.540     524.496    -166.682
  P     -245.821     526.657    -166.980
  C     -243.610     525.420    -167.476
  O     -245.021     525.416    -167.612
  C     -242.956     524.527    -168.538
  O     -243.449     523.169    -168.376
  C     -243.340     524.972    -169.957
  O     -242.337     524.633    -170.910
  C     -244.588     524.150    -170.240
  O     -244.843     523.984    -171.635
  C     -244.267     522.845    -169.516
  N     -247.126     518.656    -170.039
  C     -246.087     519.110    -170.830
  N     -245.760     518.341    -171.898
  N     -245.437     520.221    -170.604
  C     -245.912     520.922    -169.548
  C     -246.953     520.590    -168.705
  C     -247.637     519.341    -168.942
  O     -248.582     518.904    -168.290
  N     -247.149     521.559    -167.749
  C     -246.239     522.472    -168.015
  N     -245.447     522.123    -169.083
  O     -245.755     526.346    -165.408
  O     -245.250     528.010    -167.295
  H     -245.198     524.826    -171.968
  H     -244.967     526.763    -165.012
  H     -247.573     517.780    -170.237
  H     -246.099     523.392    -167.461
  H     -243.687     522.175    -170.162
  H     -245.444     524.674    -169.815
  H     -246.359     517.589    -172.209
  H     -243.546     526.035    -170.018
  H     -245.234     518.801    -172.642
  H     -241.871     524.492    -168.390
  H     -243.383     525.054    -166.472
  H     -243.222     526.443    -167.538
  P     -241.323     525.780    -171.391
  C     -239.463     526.971    -169.928
  O     -240.028     525.787    -170.452
  O     -242.073     527.137    -171.018
  O     -240.967     525.716    -172.846
  H     -242.291     527.639    -171.824
  H     -238.609     526.725    -169.333
  H     -240.187     527.474    -169.322
  H     -239.165     527.611    -170.733

 6  7  8  9  10  11  12  13  14  15  26  29  33  34 0
 6-311+G(2d,p)
 ****
 36  38  39  40  41 0
 6-311+G(2d,p)
 ****
 1  2  3  4  5  16  17  18  19  20  21  22  23  24  25 0
 3-21G
 ****
 27  28  30  31  32  35  37  42  43  44  45  46  47 0
 3-21G
 ****
 48  49 0
 3-21G
 ****


