%nproc=1
%NoSave
%Mem=1900MB
#P OB98/GEN NMR

erre ene a

0 1
  C     -288.643     725.856     410.639
  O     -288.457     726.550     411.855
  H     -288.322     724.821     410.774
  H     -288.027     726.314     409.858
  H     -289.689     725.863     410.333
  P     -289.133     727.986     412.038
  C     -291.386     726.897     412.676
  O     -290.358     727.804     413.055
  C     -292.769     727.550     412.816
  O     -293.784     726.606     412.381
  C     -293.079     727.901     414.276
  O     -293.969     729.006     414.385
  C     -293.783     726.649     414.781
  O     -294.613     726.891     415.914
  C     -294.553     726.211     413.529
  N     -297.743     722.421     414.712
  C     -297.771     723.740     415.118
  N     -298.785     724.092     415.949
  N     -296.876     724.626     414.771
  C     -295.886     724.106     413.995
  C     -295.738     722.816     413.545
  C     -296.764     721.853     413.917
  O     -296.773     720.671     413.602
  N     -294.604     722.671     412.790
  C     -294.053     723.873     412.787
  N     -294.811     724.787     413.484
  O     -289.879     728.233     410.639
  O     -288.196     729.109     412.361
  H     -294.025     727.078     416.670
  H     -290.029     729.184     410.495
  H     -298.474     721.786     414.993
  H     -293.133     724.135     412.290
  H     -295.522     726.726     413.474
  H     -293.022     725.920     415.082
  H     -299.365     723.407     416.398
  H     -292.187     728.104     414.858
  H     -298.642     724.947     416.498
  H     -292.842     728.423     412.151
  H     -291.304     726.030     413.336
  H     -291.225     726.546     411.654
  P     -293.557     730.234     415.328
  C     -291.724     731.667     414.059
  O     -293.072     731.468     414.429
  O     -292.218     729.731     416.037
  O     -294.600     730.637     416.318
  H     -292.357     729.643     416.999
  H     -291.645     732.552     413.462
  H     -291.381     730.825     413.496
  H     -291.125     731.776     414.939

 6  7  8  9  10  11  12  13  14  15  26  29  33  34 0
 6-311+G(2d,p)
 ****
 36  38  39  40  41 0
 6-311+G(2d,p)
 ****
 1  2  3  4  5  16  17  18  19  20  21  22  23  24  25 0
 3-21G
 ****
 27  28  30  31  32  35  37  42  43  44  45  46  47 0
 3-21G
 ****
 48  49 0
 3-21G
 ****


