%nproc=1
%NoSave
%Mem=1900MB
#P OB98/GEN NMR

erre ene a

0 1
  C     -854.396    1071.395     -65.279
  O     -855.251    1071.827     -64.240
  H     -854.467    1072.098     -66.108
  H     -854.698    1070.403     -65.631
  H     -853.365    1071.368     -64.924
  P     -855.321    1070.902     -62.930
  C     -857.474    1069.495     -63.271
  O     -856.066    1069.564     -63.432
  C     -857.932    1068.044     -63.127
  O     -857.920    1067.393     -64.417
  C     -857.057    1067.194     -62.225
  O     -857.428    1067.379     -60.861
  C     -857.402    1065.795     -62.709
  O     -858.643    1065.368     -62.116
  C     -857.587    1066.001     -64.221
  N     -855.664    1062.777     -67.724
  C     -856.796    1062.719     -66.981
  N     -857.206    1063.576     -66.034
  C     -856.344    1064.611     -65.889
  C     -855.152    1064.788     -66.579
  C     -854.820    1063.826     -67.541
  N     -853.676    1063.883     -68.305
  N     -854.519    1065.944     -66.157
  C     -855.341    1066.470     -65.280
  N     -856.434    1065.682     -65.046
  O     -855.873    1071.550     -61.711
  O     -853.796    1070.420     -62.818
  H     -858.612    1065.636     -61.178
  H     -853.436    1070.220     -63.698
  H     -857.439    1061.871     -67.167
  H     -855.193    1067.428     -64.791
  H     -858.427    1065.408     -64.614
  H     -856.650    1065.054     -62.435
  H     -855.990    1067.376     -62.382
  H     -858.966    1068.055     -62.775
  H     -857.980    1069.969     -64.126
  H     -853.431    1063.056     -68.832
  H     -852.992    1064.584     -68.074
  H     -857.731    1070.059     -62.369
  P     -856.421    1067.003     -59.668
  C     -857.115    1064.684     -58.826
  O     -856.286    1065.409     -59.726
  O     -856.798    1067.584     -58.341
  O     -854.995    1067.501     -60.195
  H     -854.361    1067.574     -59.430
  H     -856.944    1063.635     -58.950
  H     -858.142    1064.904     -59.031
  H     -856.883    1064.967     -57.821

 6  7  8  9  10  11  12  13  14  15  25  28  32  33  34  35 0
 6-311+G(2d,p)
 ****
 36  39  40 0
 6-311+G(2d,p)
 ****
 1  2  3  4  5  16  17  18  19  20  21  22  23  24 0
 3-21G
 ****
 26  27  29  30  31  37  38  41  42  43  44  45  46  47 0
 3-21G
 ****
 48 0
 3-21G
 ****


