%nproc=1
%NoSave
%Mem=1900MB
#P OB98/GEN NMR

erre ene a

0 1
  C       -2.418    -896.370     131.068
  O       -3.108    -897.570     131.357
  P       -3.109    -898.080     132.884
  C       -5.584    -897.350     133.313
  O       -4.211    -897.190     133.644
  C       -6.359    -897.850     134.540
  O       -6.052    -897.020     135.683
  C       -7.870    -897.800     134.381
  O       -8.338    -898.930     133.660
  C       -8.327    -897.760     135.833
  O       -8.326    -899.080     136.408
  C       -7.255    -896.870     136.477
  N      -10.347    -893.520     138.680
  C      -10.367    -894.910     138.709
  N      -11.326    -895.470     139.462
  N       -9.519    -895.660     138.050
  C       -8.638    -894.950     137.317
  C       -8.524    -893.580     137.189
  C       -9.420    -892.760     137.965
  O       -9.389    -891.540     138.051
  N       -7.493    -893.240     136.355
  C       -6.983    -894.390     135.979
  N       -7.624    -895.470     136.556
  O       -1.718    -897.510     133.439
  O       -3.248    -899.550     133.070
  H       -7.404    -899.370     136.554
  H       -1.037    -898.210     133.438
  H      -11.009    -892.990     139.213
  H       -6.144    -894.510     135.313
  H       -7.019    -897.190     137.502
  H       -9.350    -897.380     135.939
  H      -12.020    -894.960     139.978
  H       -8.179    -896.880     133.878
  H      -11.355    -896.490     139.493
  H       -6.028    -898.860     134.760
  H       -5.677    -898.100     132.504
  H       -5.982    -896.400     132.956
  P       -9.540    -898.730     132.628
  C       -8.029    -898.300     130.558
  O       -9.005    -897.790     131.445
  O      -10.549    -897.770     133.431
  O      -10.207    -900.000     132.185
  H      -11.478    -898.030     133.209
  H       -8.149    -897.820     129.585
  H       -8.120    -899.390     130.437
  H       -7.034    -898.070     130.941
  H       -2.500    -896.154     130.023
  H       -1.386    -896.480     131.329
  H       -2.845    -895.568     131.633

 3  4  5  6  7  8  9  10  11  12  23  26  30  31 0
 6-311+G(2d,p)
 ****
 33  35  36  37  38 0
 6-311+G(2d,p)
 ****
 1  2  13  14  15  16  17  18  19  20  21  22  24  25 0
 3-21G
 ****
 27  28  29  32  34  39  40  41  42  43  44  45  46  47  48  49 0
 3-21G
 ****


