%nproc=1
%NoSave
%Mem=1900MB
#P OB98/GEN NMR

erre ene a

0 1
  C      127.165     -55.635       8.644
  O      127.773     -54.819       9.651
  P      126.823     -53.807      10.463
  C      126.854     -51.834       8.770
  O      126.080     -52.841       9.411
  C      126.040     -51.113       7.685
  O      126.822     -50.028       7.092
  C      125.614     -52.029       6.529
  O      124.375     -51.538       6.005
  C      126.703     -51.801       5.499
  O      126.292     -52.209       4.197
  C      126.940     -50.299       5.675
  N      129.568     -49.107       1.529
  C      128.253     -49.531       1.667
  N      127.528     -49.618       0.526
  N      127.705     -49.845       2.809
  C      128.546     -49.670       3.871
  C      129.861     -49.276       3.859
  C      130.461     -48.956       2.586
  O      131.621     -48.587       2.404
  N      130.381     -49.243       5.132
  C      129.383     -49.641       5.908
  N      128.234     -49.881       5.186
  O      127.873     -52.836      11.189
  O      125.933     -54.482      11.455
  H      127.013     -51.969       3.570
  H      127.891     -53.025      12.144
  H      129.940     -48.892       0.618
  H      129.435     -49.767       6.971
  H      126.192     -49.692       5.151
  H      127.600     -52.373       5.776
  H      127.877     -49.347      -0.379
  H      125.496     -53.084       6.802
  H      126.553     -49.885       0.602
  H      125.158     -50.664       8.148
  H      127.752     -52.277       8.325
  H      127.219     -51.133       9.532
  P      123.088     -52.485       6.163
  C      123.537     -53.849       3.995
  O      123.444     -53.857       5.410
  O      121.997     -51.803       5.208
  O      122.594     -52.634       7.565
  H      121.099     -52.033       5.506
  H      124.596     -53.861       3.704
  H      123.053     -52.968       3.557
  H      123.051     -54.749       3.606
  H      127.910     -56.254       8.189
  H      126.718     -55.009       7.900
  H      126.413     -56.251       9.090

 3  4  5  6  7  8  9  10  11  12  23  26  30  31 0
 6-311+G(2d,p)
 ****
 33  35  36  37  38 0
 6-311+G(2d,p)
 ****
 1  2  13  14  15  16  17  18  19  20  21  22  24  25 0
 3-21G
 ****
 27  28  29  32  34  39  40  41  42  43  44  45  46  47  48  49 0
 3-21G
 ****


