%nproc=1
%NoSave
%Mem=1900MB
#P OB98/GEN NMR

erre ene a

0 1
  C      163.310    -232.213    -312.134
  O      162.149    -232.145    -312.942
  H      163.242    -233.105    -311.502
  H      163.371    -231.333    -311.484
  H      164.208    -232.286    -312.745
  P      162.063    -231.012    -314.072
  C      162.465    -228.465    -314.197
  O      162.473    -229.627    -313.380
  C      162.246    -227.223    -313.333
  O      163.278    -227.123    -312.331
  C      162.284    -225.917    -314.113
  O      161.088    -225.712    -314.840
  C      162.527    -224.921    -312.990
  O      161.300    -224.607    -312.307
  C      163.486    -225.712    -312.066
  N      164.887    -225.339    -312.251
  C      165.359    -224.298    -311.459
  O      164.649    -223.677    -310.663
  N      166.678    -223.964    -311.633
  C      167.513    -224.481    -312.578
  O      168.664    -224.087    -312.752
  C      166.958    -225.562    -313.401
  C      165.690    -225.935    -313.205
  O      160.794    -230.973    -314.854
  O      163.321    -231.326    -315.014
  H      161.540    -223.999    -311.583
  H      163.012    -231.739    -315.840
  H      167.028    -223.203    -311.080
  H      167.589    -226.007    -314.154
  H      165.258    -226.733    -313.810
  H      163.222    -225.548    -311.013
  H      162.942    -223.979    -313.350
  H      163.153    -225.903    -314.783
  H      161.281    -227.336    -312.815
  H      161.644    -228.554    -314.920
  H      163.418    -228.397    -314.739
  P      161.139    -225.019    -316.277
  C      161.920    -222.778    -317.267
  O      161.642    -223.507    -316.078
  O      159.905    -225.169    -317.111
  O      162.392    -225.720    -316.992
  H      162.089    -226.177    -317.808
  H      162.245    -221.791    -317.012
  H      161.034    -222.719    -317.864
  H      162.690    -223.276    -317.819

 6  7  8  9  10  11  12  13  14  15  16  26  31  32  33  34  35 0
 6-311+G(2d,p)
 ****
 36  37 0
 6-311+G(2d,p)
 ****
 1  2  3  4  5  17  18  19  20  21  22  23  24  25 0
 3-21G
 ****
 27  28  29  30  38  39  40  41  42  43  44  45 0
 3-21G
 ****


