%nproc=1
%NoSave
%Mem=1900MB
#P OB98/GEN NMR

erre ene a

0 1
  C      342.668     192.262      84.478
  O      342.552     193.348      83.578
  H      343.596     191.726      84.264
  H      341.825     191.577      84.354
  H      342.700     192.631      85.507
  P      341.192     194.200      83.655
  C      340.238     192.530      81.890
  O      340.071     193.163      83.151
  C      339.129     191.507      81.670
  O      339.212     190.440      82.641
  C      337.715     192.066      81.806
  O      337.291     192.807      80.673
  C      336.934     190.775      81.963
  O      336.831     190.115      80.687
  C      337.858     189.991      82.925
  N      337.529     190.204      84.337
  C      336.276     189.743      84.764
  O      335.508     189.195      83.978
  N      335.910     189.951      86.073
  C      336.727     190.542      86.889
  N      336.308     190.719      88.173
  C      338.060     191.031      86.488
  C      338.391     190.831      85.212
  O      341.318     195.208      82.420
  O      340.902     194.854      84.964
  H      336.322     189.298      80.836
  H      340.460     195.686      82.285
  H      338.701     191.530      87.198
  H      339.354     191.163      84.840
  H      337.821     188.915      82.713
  H      335.918     190.923      82.328
  H      337.607     192.661      82.722
  H      339.280     191.058      80.678
  H      335.367     190.427      88.403
  H      341.216     192.029      81.886
  H      336.802     191.296      88.837
  H      340.215     193.270      81.090
  P      336.469     194.163      80.946
  C      334.230     192.831      80.950
  O      335.086     193.738      81.633
  O      336.028     194.620      79.479
  O      337.238     195.230      81.661
  H      336.013     195.595      79.407
  H      333.355     192.653      81.540
  H      334.745     191.907      80.788
  H      333.945     193.250      80.008

 6  7  8  9  10  11  12  13  14  15  16  26  30  31  32  33  35 0
 6-311+G(2d,p)
 ****
 37  38 0
 6-311+G(2d,p)
 ****
 1  2  3  4  5  17  18  19  20  21  22  23  24  25 0
 3-21G
 ****
 27  28  29  34  36  39  40  41  42  43  44  45  46 0
 3-21G
 ****


