%nproc=1
%NoSave
%Mem=1900MB
#P OB98/GEN NMR

erre ene a

0 1
  C     -127.523    -402.428    -296.266
  O     -128.275    -403.341    -297.058
  P     -129.556    -402.857    -297.900
  C     -132.051    -402.597    -297.259
  O     -130.707    -402.601    -296.808
  C     -132.975    -401.983    -296.202
  O     -133.015    -402.874    -295.056
  C     -132.520    -400.600    -295.688
  O     -133.691    -399.849    -295.418
  C     -131.786    -400.934    -294.407
  O     -131.703    -399.829    -293.521
  C     -132.626    -402.103    -293.894
  N     -131.908    -402.941    -292.938
  C     -131.652    -402.404    -291.674
  O     -132.007    -401.250    -291.386
  N     -130.992    -403.173    -290.750
  C     -130.557    -404.354    -291.080
  N     -129.963    -405.110    -290.107
  C     -130.714    -404.914    -292.437
  C     -131.406    -404.174    -293.291
  O     -129.944    -403.757    -299.024
  O     -129.190    -401.363    -298.356
  H     -131.476    -400.162    -292.632
  H     -128.662    -401.337    -299.189
  H     -130.301    -405.886    -292.676
  H     -131.586    -404.513    -294.306
  H     -133.557    -401.735    -293.438
  H     -130.755    -401.252    -294.642
  H     -131.904    -400.061    -296.428
  H     -133.984    -401.919    -296.617
  H     -130.033    -404.757    -289.163
  H     -132.365    -403.630    -297.442
  H     -129.897    -406.119    -290.198
  H     -132.123    -402.049    -298.211
  P     -133.533    -398.286    -295.013
  C     -133.457    -396.914    -292.814
  O     -133.586    -398.187    -293.420
  O     -134.969    -397.693    -295.434
  O     -132.445    -397.532    -295.710
  H     -134.866    -396.748    -295.624
  H     -133.518    -397.038    -291.728
  H     -134.261    -396.245    -293.136
  H     -132.481    -396.473    -293.065
  H     -126.718    -402.948    -295.790
  H     -128.158    -401.995    -295.521
  H     -127.128    -401.655    -296.891

 3  4  5  6  7  8  9  10  11  12  13  23  27  28  29  30  32 0
 6-311+G(2d,p)
 ****
 34  35 0
 6-311+G(2d,p)
 ****
 1  2  14  15  16  17  18  19  20  21  22  24  25  26 0
 3-21G
 ****
 31  33  36  37  38  39  40  41  42  43  44  45  46 0
 3-21G
 ****


