%nproc=1
%NoSave
%Mem=1900MB
#P OB98/GEN NMR

erre ene a

0 1
  C     -896.590    -545.434    2044.296
  O     -897.400    -545.299    2043.134
  H     -896.820    -546.383    2044.781
  H     -896.770    -544.623    2044.979
  H     -895.530    -545.456    2044.016
  P     -897.120    -544.083    2042.146
  C     -897.230    -545.459    2039.940
  O     -896.400    -544.709    2040.844
  C     -896.570    -546.820    2039.636
  O     -896.410    -547.563    2040.895
  C     -897.350    -547.706    2038.666
  O     -896.430    -548.523    2037.960
  C     -898.170    -548.541    2039.645
  O     -898.820    -549.640    2039.019
  C     -897.100    -548.848    2040.693
  N     -897.570    -549.376    2041.952
  C     -896.860    -550.465    2042.519
  O     -895.880    -550.982    2041.989
  N     -897.370    -550.930    2043.703
  C     -898.440    -550.449    2044.385
  O     -898.820    -550.913    2045.465
  C     -899.120    -549.324    2043.733
  C     -898.680    -548.831    2042.587
  O     -896.430    -542.892    2042.733
  O     -898.570    -543.704    2041.574
  H     -898.900    -542.912    2042.042
  H     -899.530    -549.947    2039.594
  H     -896.860    -551.708    2044.094
  H     -900.000    -548.923    2044.293
  H     -899.170    -547.991    2042.105
  H     -896.330    -549.534    2040.269
  H     -898.980    -547.933    2040.089
  H     -897.960    -547.127    2037.948
  H     -895.530    -546.648    2039.286
  H     -897.310    -544.893    2039.016
  H     -898.200    -545.609    2040.403
  P     -895.430    -547.933    2036.824
  C     -893.070    -548.957    2037.320
  O     -893.950    -547.840    2037.470
  O     -895.890    -546.671    2036.204
  O     -895.310    -549.132    2035.728
  H     -895.090    -548.725    2034.878
  H     -892.137    -548.743    2037.798
  H     -892.903    -549.142    2036.279
  H     -893.511    -549.822    2037.770

 6  7  8  9  10  11  12  13  14  15  16  27  31  32  33  34  35 0
 6-311+G(2d,p)
 ****
 36  37 0
 6-311+G(2d,p)
 ****
 1  2  3  4  5  17  18  19  20  21  22  23  24  25 0
 3-21G
 ****
 26  28  29  30  38  39  40  41  42  43  44  45 0
 3-21G
 ****


