%nproc=1
%NoSave
%Mem=1900MB
#P OB98/GEN NMR

erre ene a

0 1
  C       72.486     489.502    -110.606
  O       71.449     489.676    -111.550
  H       73.000     490.453    -110.425
  H       72.053     489.151    -109.667
  H       73.202     488.758    -110.968
  P       71.877     490.295    -112.970
  C       71.644     487.990    -114.131
  O       72.495     489.083    -113.824
  C       71.525     487.821    -115.643
  O       72.818     487.516    -116.211
  C       70.614     486.686    -116.091
  O       69.242     487.045    -116.015
  C       71.078     486.503    -117.530
  O       70.455     487.505    -118.366
  C       72.584     486.768    -117.434
  N       75.565     483.586    -120.147
  C       74.911     484.715    -120.487
  N       74.127     485.506    -119.723
  C       74.067     485.030    -118.466
  C       74.682     483.894    -117.973
  C       75.456     483.151    -118.875
  N       76.111     481.987    -118.521
  N       74.397     483.730    -116.633
  C       73.626     484.753    -116.317
  N       73.390     485.564    -117.395
  O       73.157     491.189    -112.617
  O       70.821     491.094    -113.661
  H       70.708     487.291    -119.284
  H       73.152     491.984    -113.184
  H       75.035     485.036    -121.526
  H       73.223     484.941    -115.335
  H       72.940     487.390    -118.265
  H       70.819     485.529    -117.944
  H       70.822     485.768    -115.527
  H       71.191     488.778    -116.066
  H       70.650     488.173    -113.713
  H       76.799     481.610    -119.144
  H       76.022     481.667    -117.559
  H       72.061     487.083    -113.679
  P       68.163     485.852    -115.976
  C       68.125     486.270    -113.409
  O       68.179     485.315    -114.466
  O       68.889     484.681    -116.792
  O       66.824     486.182    -116.542
  H       68.219     484.077    -117.171
  H       68.143     485.762    -112.468
  H       67.223     486.840    -113.489
  H       68.968     486.925    -113.477

 6  7  8  9  10  11  12  13  14  15  25  28  32  33  34  35 0
 6-311+G(2d,p)
 ****
 36  39  40 0
 6-311+G(2d,p)
 ****
 1  2  3  4  5  16  17  18  19  20  21  22  23  24 0
 3-21G
 ****
 26  27  29  30  31  37  38  41  42  43  44  45  46  47  48 0
 3-21G
 ****


