%nproc=1
%NoSave
%Mem=1900MB
#P OB98/GEN NMR

erre ene a

0 1
  C     -538.740     232.308    -270.974
  O     -538.085     231.438    -270.067
  H     -538.563     233.339    -270.661
  H     -539.812     232.116    -270.966
  H     -538.343     232.180    -271.986
  P     -538.195     229.859    -270.310
  C     -539.675     228.742    -268.494
  O     -539.642     229.430    -269.749
  C     -539.252     229.690    -267.370
  O     -539.930     230.959    -267.502
  C     -539.576     229.161    -265.964
  O     -538.578     228.242    -265.543
  C     -539.566     230.463    -265.174
  O     -538.197     230.874    -264.945
  C     -540.254     231.438    -266.171
  N     -544.152     234.019    -264.199
  C     -542.792     234.218    -264.049
  N     -542.425     235.230    -263.246
  N     -541.883     233.499    -264.650
  C     -542.399     232.471    -265.360
  C     -543.731     232.150    -265.567
  C     -544.725     233.009    -264.947
  O     -545.946     232.865    -265.058
  N     -543.877     231.000    -266.304
  C     -542.622     230.657    -266.593
  N     -541.699     231.496    -266.019
  O     -537.065     229.026    -269.790
  O     -538.367     229.725    -271.902
  H     -537.748     230.131    -264.515
  H     -537.509     229.591    -272.340
  H     -544.817     234.608    -263.693
  H     -542.347     229.785    -267.200
  H     -539.861     232.465    -266.080
  H     -540.048     230.368    -264.209
  H     -543.045     235.645    -262.565
  H     -540.586     228.736    -265.921
  H     -541.418     235.380    -263.100
  H     -538.174     229.900    -267.477
  H     -538.971     227.893    -268.570
  H     -540.681     228.349    -268.298
  P     -538.839     227.246    -264.298
  C     -537.495     227.671    -262.110
  O     -538.508     228.140    -263.012
  O     -538.100     225.946    -264.365
  O     -540.440     227.099    -264.232
  H     -540.773     226.354    -264.785
  H     -537.385     228.367    -261.305
  H     -536.566     227.580    -262.633
  H     -537.779     226.716    -261.720

 6  7  8  9  10  11  12  13  14  15  26  29  33  34 0
 6-311+G(2d,p)
 ****
 36  38  39  40  41 0
 6-311+G(2d,p)
 ****
 1  2  3  4  5  16  17  18  19  20  21  22  23  24  25 0
 3-21G
 ****
 27  28  30  31  32  35  37  42  43  44  45  46  47 0
 3-21G
 ****
 48  49 0
 3-21G
 ****


