%nproc=1
%NoSave
%Mem=1900MB
#P OB98/GEN NMR

erre ene a

0 1
  C       42.836       3.935     -41.083
  O       41.977       3.237     -41.959
  P       41.931       1.642     -42.055
  C       39.403       1.445     -41.487
  O       40.737       1.117     -41.115
  C       38.368       1.027     -40.433
  O       38.399       1.959     -39.333
  C       36.956       1.101     -41.022
  O       36.446       0.027     -41.786
  C       36.069       1.547     -39.867
  O       35.392       0.455     -39.243
  C       37.053       2.196     -38.893
  N       34.218       5.854     -36.827
  C       34.259       4.508     -36.521
  N       33.288       4.061     -35.695
  N       35.153       3.684     -37.000
  C       35.998       4.260     -37.887
  C       36.064       5.583     -38.258
  C       35.097       6.491     -37.689
  O       34.974       7.674     -37.999
  N       37.001       5.792     -39.235
  C       37.477       4.590     -39.487
  N       36.870       3.623     -38.722
  O       43.242       0.928     -42.014
  O       41.314       1.434     -43.532
  H       34.664       0.179     -39.828
  H       41.718       0.627     -43.906
  H       33.455       6.427     -36.487
  H       38.231       4.363     -40.232
  H       36.967       1.743     -37.898
  H       35.288       2.231     -40.221
  H       32.502       4.636     -35.425
  H       36.951       1.947     -41.722
  H       33.184       3.059     -35.585
  H       38.615       0.052     -40.004
  H       39.200       0.954     -42.444
  H       39.327       2.522     -41.657
  P       35.705       0.134     -43.198
  C       36.716      -1.770     -44.576
  O       36.710      -0.374     -44.336
  O       35.614       1.707     -43.480
  O       34.344      -0.481     -43.243
  H       34.894       1.887     -44.113
  H       37.622      -2.032     -45.126
  H       35.843      -2.041     -45.178
  H       36.695      -2.328     -43.636
  H       42.685       4.988     -41.200
  H       43.853       3.693     -41.312
  H       42.621       3.654     -40.073

 3  4  5  6  7  8  9  10  11  12  23  26  30  31 0
 6-311+G(2d,p)
 ****
 33  35  36  37  38 0
 6-311+G(2d,p)
 ****
 1  2  13  14  15  16  17  18  19  20  21  22  24  25 0
 3-21G
 ****
 27  28  29  32  34  39  40  41  42  43  44  45  46  47  48  49 0
 3-21G
 ****


