%nproc=1
%NoSave
%Mem=1900MB
#P OB98/GEN NMR

erre ene a

0 1
  C       63.374      86.541    1002.954
  O       64.770      86.624    1003.159
  H       62.965      87.551    1002.890
  H       62.901      86.018    1003.792
  H       63.160      86.016    1002.015
  P       65.561      85.232    1003.301
  C       65.886      85.130    1005.874
  O       65.169      84.646    1004.747
  C       65.850      84.101    1007.008
  O       64.498      83.881    1007.450
  C       66.417      82.738    1006.635
  O       67.836      82.716    1006.741
  C       65.740      81.838    1007.669
  O       66.423      81.901    1008.936
  C       64.345      82.474    1007.762
  N       61.582      78.327    1006.910
  C       62.443      78.626    1007.953
  N       62.646      77.648    1008.865
  N       63.069      79.766    1008.068
  C       62.799      80.630    1007.064
  C       61.953      80.455    1005.987
  C       61.244      79.199    1005.877
  O       60.419      78.900    1005.028
  N       61.936      81.569    1005.180
  C       62.796      82.398    1005.750
  N       63.364      81.865    1006.884
  O       67.084      85.683    1003.489
  O       65.399      84.285    1002.161
  H       67.181      81.298    1008.923
  H       67.670      84.997    1003.113
  H       61.119      77.437    1006.887
  H       63.047      83.387    1005.380
  H       63.935      82.409    1008.784
  H       65.742      80.796    1007.357
  H       62.465      76.678    1008.655
  H       66.088      82.443    1005.623
  H       63.287      77.853    1009.617
  H       66.411      84.532    1007.855
  H       65.425      86.060    1006.222
  H       66.924      85.329    1005.582
  P       68.666      82.132    1005.504
  C       69.169      79.628    1006.002
  O       68.294      80.569    1005.412
  O       70.173      82.114    1006.036
  O       68.525      82.904    1004.231
  H       70.798      82.037    1005.288
  H       68.783      78.641    1005.855
  H       69.252      79.826    1007.050
  H       70.134      79.705    1005.547

 6  7  8  9  10  11  12  13  14  15  26  29  33  34 0
 6-311+G(2d,p)
 ****
 36  38  39  40  41 0
 6-311+G(2d,p)
 ****
 1  2  3  4  5  16  17  18  19  20  21  22  23  24  25 0
 3-21G
 ****
 27  28  30  31  32  35  37  42  43  44  45  46  47 0
 3-21G
 ****
 48  49 0
 3-21G
 ****


