%nproc=1
%NoSave
%Mem=1900MB
#P OB98/GEN NMR

erre ene a

0 1
  C     -909.419    -361.226     270.774
  O     -910.200    -360.669     271.822
  H     -908.753    -360.459     270.382
  H     -910.078    -361.568     269.968
  H     -908.813    -362.065     271.132
  P     -911.048    -361.645     272.767
  C     -909.988    -361.087     275.050
  O     -911.116    -360.939     274.203
  C     -909.871    -359.915     276.023
  O     -909.448    -358.724     275.294
  C     -911.193    -359.566     276.731
  O     -910.855    -359.037     278.023
  C     -911.738    -358.460     275.847
  O     -912.744    -357.710     276.505
  C     -910.448    -357.715     275.501
  N     -910.605    -356.844     274.326
  C     -910.891    -355.504     274.575
  O     -911.038    -355.050     275.721
  N     -911.042    -354.701     273.473
  C     -910.993    -355.118     272.181
  O     -911.168    -354.364     271.241
  C     -910.737    -356.552     271.973
  C     -910.547    -357.340     273.043
  O     -910.602    -363.071     272.782
  O     -912.547    -361.499     272.225
  H     -912.347    -357.179     277.215
  H     -913.038    -362.330     272.372
  H     -911.244    -353.727     273.643
  H     -910.697    -356.914     270.961
  H     -910.361    -358.407     272.915
  H     -910.125    -357.094     276.345
  H     -912.186    -358.888     274.938
  H     -911.868    -360.421     276.833
  H     -909.077    -360.125     276.755
  H     -909.090    -361.137     274.413
  H     -910.060    -362.029     275.604
  P     -911.761    -359.327     279.326
  C     -911.583    -361.869     279.684
  O     -911.151    -360.592     280.107
  O     -913.237    -359.432     279.041
  O     -911.469    -358.088     280.294
  H     -912.241    -357.935     280.885
  H     -911.108    -362.621     280.278
  H     -911.324    -362.011     278.656
  H     -912.644    -361.942     279.798

 6  7  8  9  10  11  12  13  14  15  16  26  31  32  33  34  35 0
 6-311+G(2d,p)
 ****
 36  37 0
 6-311+G(2d,p)
 ****
 1  2  3  4  5  17  18  19  20  21  22  23  24  25 0
 3-21G
 ****
 27  28  29  30  38  39  40  41  42  43  44  45 0
 3-21G
 ****


