%nproc=1
%NoSave
%Mem=1900MB
#P OB98/GEN NMR

erre ene a

0 1
  C     -443.860     203.173     352.986
  O     -443.322     204.217     352.196
  H     -443.155     202.941     353.789
  H     -444.010     202.277     352.377
  H     -444.810     203.488     353.428
  P     -444.224     204.723     350.969
  C     -442.833     203.225     349.383
  O     -444.122     203.541     349.887
  C     -442.920     202.077     348.377
  O     -441.708     201.980     347.611
  C     -443.120     200.703     349.012
  O     -444.481     200.494     349.346
  C     -442.674     199.800     347.871
  O     -443.735     199.674     346.907
  C     -441.497     200.588     347.260
  N     -437.472     197.537     346.342
  C     -438.705     197.583     345.792
  N     -439.738     198.392     346.117
  C     -439.403     199.218     347.119
  C     -438.183     199.286     347.773
  C     -437.179     198.399     347.342
  N     -435.919     198.363     347.894
  N     -438.206     200.256     348.752
  C     -439.400     200.804     348.654
  N     -440.176     200.187     347.703
  O     -443.935     206.100     350.477
  O     -445.697     204.512     351.567
  H     -444.008     200.573     346.649
  H     -445.737     203.693     352.091
  H     -438.891     196.880     344.984
  H     -439.749     201.652     349.230
  H     -441.493     200.522     346.166
  H     -442.433     198.787     348.212
  H     -442.455     200.555     349.867
  H     -443.731     202.305     347.678
  H     -442.158     202.952     350.201
  H     -435.324     197.590     347.646
  H     -435.747     198.919     348.718
  H     -442.441     204.123     348.895
  P     -444.918     199.266     350.279
  C     -447.107     198.965     348.965
  O     -445.898     198.350     349.399
  O     -445.455     199.645     351.613
  O     -443.599     198.369     350.399
  H     -443.522     198.000     351.301
  H     -447.677     198.265     348.391
  H     -446.877     199.818     348.361
  H     -447.676     199.274     349.817

 6  7  8  9  10  11  12  13  14  15  25  28  32  33  34  35 0
 6-311+G(2d,p)
 ****
 36  39  40 0
 6-311+G(2d,p)
 ****
 1  2  3  4  5  16  17  18  19  20  21  22  23  24 0
 3-21G
 ****
 26  27  29  30  31  37  38  41  42  43  44  45  46  47 0
 3-21G
 ****
 48 0
 3-21G
 ****


