%nproc=1
%NoSave
%Mem=1900MB
#P OB98/GEN NMR

erre ene a

0 1
  C     -108.050     272.416     -81.583
  O     -108.069     272.809     -80.202
  P     -109.022     271.998     -79.202
  C     -110.813     273.878     -79.348
  O     -110.528     272.491     -79.442
  C     -112.132     274.203     -80.052
  O     -113.214     273.383     -79.554
  C     -112.585     275.646     -79.871
  O     -111.950     276.517     -80.793
  C     -114.065     275.533     -80.205
  O     -114.242     275.510     -81.640
  C     -114.431     274.172     -79.599
  N     -118.376     272.988     -76.662
  C     -118.142     272.700     -77.994
  N     -119.092     271.988     -78.633
  N     -117.068     273.081     -78.638
  C     -116.195     273.774     -77.867
  C     -116.318     274.123     -76.543
  C     -117.518     273.705     -75.846
  O     -117.787     273.948     -74.669
  N     -115.231     274.832     -76.108
  C     -114.439     274.896     -77.162
  N     -114.989     274.282     -78.263
  O     -108.662     272.634     -77.777
  O     -108.812     270.520     -79.217
  H     -115.154     275.199     -81.800
  H     -108.822     271.979     -77.074
  H     -119.224     272.677     -76.217
  H     -113.468     275.373     -77.180
  H     -115.160     273.620     -80.208
  H     -114.644     276.377     -79.830
  H     -119.915     271.621     -78.188
  H     -112.454     275.974     -78.832
  H     -118.917     271.734     -79.600
  H     -112.007     273.996     -81.124
  H     -110.001     274.464     -79.795
  H     -110.837     274.168     -78.291
  P     -110.889     277.578     -80.216
  C     -112.875     279.248     -80.274
  O     -111.756     278.761     -79.568
  O     -110.275     278.227     -81.544
  O     -109.829     276.985     -79.346
  H     -109.346     278.484     -81.390
  H     -113.433     279.923     -79.616
  H     -113.538     278.427     -80.568
  H     -112.553     279.802     -81.157
  H     -107.373     273.044     -82.123
  H     -109.033     272.514     -81.995
  H     -107.731     271.398     -81.660

 3  4  5  6  7  8  9  10  11  12  23  26  30  31 0
 6-311+G(2d,p)
 ****
 33  35  36  37  38 0
 6-311+G(2d,p)
 ****
 1  2  13  14  15  16  17  18  19  20  21  22  24  25 0
 3-21G
 ****
 27  28  29  32  34  39  40  41  42  43  44  45  46  47  48  49 0
 3-21G
 ****


