%nproc=1
%NoSave
%Mem=1900MB
#P OB98/GEN NMR

erre ene a

0 1
  C      108.924     239.899    -136.989
  O      110.124     239.188    -136.757
  H      108.561     239.655    -137.991
  H      109.110     240.977    -136.930
  H      108.160     239.609    -136.259
  P      110.730     239.257    -135.271
  C      112.141     241.068    -133.991
  O      111.416     240.705    -135.153
  C      112.625     242.516    -134.083
  O      113.510     242.636    -135.228
  C      111.494     243.532    -134.264
  O      111.847     244.732    -133.557
  C      111.495     243.812    -135.759
  O      110.911     245.069    -136.078
  C      112.996     243.689    -136.077
  N      113.242     243.407    -137.495
  C      112.947     244.426    -138.400
  O      112.495     245.507    -137.994
  N      113.145     244.212    -139.740
  C      113.531     243.044    -140.148
  N      113.673     242.873    -141.491
  C      113.804     241.914    -139.232
  C      113.659     242.167    -137.931
  O      111.975     238.257    -135.376
  O      109.757     238.924    -134.192
  H      111.362     245.768    -135.557
  H      112.500     238.372    -136.187
  H      114.121     240.950    -139.620
  H      113.844     241.401    -137.189
  H      113.524     244.616    -135.817
  H      110.929     243.033    -136.288
  H      110.525     243.160    -133.905
  H      113.222     242.747    -133.196
  H      113.452     243.669    -142.087
  H      113.004     240.403    -133.855
  H      113.914     241.996    -141.931
  H      111.476     240.944    -133.126
  P      111.676     244.788    -131.968
  C      109.895     243.825    -130.350
  O      110.149     244.506    -131.578
  O      112.299     245.971    -131.297
  O      112.409     243.431    -131.490
  H      112.928     243.645    -130.686
  H      108.840     243.706    -130.220
  H      110.293     244.396    -129.537
  H      110.362     242.863    -130.373

 6  7  8  9  10  11  12  13  14  15  16  26  30  31  32  33  35 0
 6-311+G(2d,p)
 ****
 37  38 0
 6-311+G(2d,p)
 ****
 1  2  3  4  5  17  18  19  20  21  22  23  24  25 0
 3-21G
 ****
 27  28  29  34  36  39  40  41  42  43  44  45  46 0
 3-21G
 ****


