%nproc=1
%NoSave
%Mem=1900MB
#P OB98/GEN NMR

erre ene a

0 1
  C      145.406     -81.221     -67.052
  O      145.083     -82.573     -66.795
  H      146.469     -81.072     -66.839
  H      144.827     -80.567     -66.396
  H      145.219     -80.967     -68.097
  P      143.615     -83.101     -67.159
  C      142.558     -82.848     -64.819
  O      142.998     -83.749     -65.824
  C      141.985     -83.612     -63.621
  O      140.840     -84.385     -64.066
  C      142.980     -84.580     -62.975
  O      142.784     -84.579     -61.560
  C      142.584     -85.927     -63.548
  O      142.947     -87.007     -62.692
  C      141.074     -85.763     -63.719
  N      137.465     -89.130     -64.799
  C      137.650     -88.353     -63.674
  N      136.750     -88.506     -62.678
  N      138.632     -87.501     -63.534
  C      139.442     -87.435     -64.618
  C      139.365     -88.151     -65.790
  C      138.285     -89.107     -65.922
  O      138.081     -89.833     -66.888
  N      140.384     -87.817     -66.646
  C      141.075     -86.902     -65.991
  N      140.553     -86.645     -64.752
  O      143.543     -83.978     -68.368
  O      142.751     -81.769     -67.349
  H      143.914     -86.931     -62.530
  H      142.577     -81.597     -68.292
  H      136.698     -89.778     -64.851
  H      141.959     -86.401     -66.363
  H      140.522     -85.989     -62.799
  H      143.076     -86.076     -64.517
  H      135.956     -89.127     -62.727
  H      144.014     -84.322     -63.203
  H      136.846     -87.924     -61.852
  H      141.613     -82.884     -62.891
  H      141.783     -82.204     -65.248
  H      143.400     -82.224     -64.500
  P      143.901     -83.916     -60.621
  C      144.105     -86.085     -59.260
  O      143.912     -84.680     -59.208
  O      143.861     -82.425     -60.530
  O      145.272     -84.412     -61.295
  H      145.943     -83.706     -61.200
  H      144.094     -86.484     -58.267
  H      145.047     -86.299     -59.720
  H      143.319     -86.532     -59.832

 6  7  8  9  10  11  12  13  14  15  26  29  33  34 0
 6-311+G(2d,p)
 ****
 36  38  39  40  41 0
 6-311+G(2d,p)
 ****
 1  2  3  4  5  16  17  18  19  20  21  22  23  24  25 0
 3-21G
 ****
 27  28  30  31  32  35  37  42  43  44  45  46  47 0
 3-21G
 ****
 48  49 0
 3-21G
 ****


