%nproc=1
%NoSave
%Mem=1900MB
#P OB98/GEN NMR

erre ene a

0 1
  C        8.948      80.098      48.796
  O        8.319      79.349      47.756
  P        8.296      79.949      46.269
  C        8.815      77.730      45.077
  O        7.874      78.782      45.247
  C        8.352      76.698      44.039
  O        7.176      75.986      44.506
  C        8.007      77.291      42.664
  O        8.410      76.331      41.681
  C        6.498      77.397      42.724
  O        5.908      77.524      41.441
  C        6.162      76.111      43.486
  N        4.824      76.131      44.055
  C        3.754      76.259      43.168
  O        3.965      76.451      41.972
  N        2.473      76.196      43.671
  C        2.290      76.164      44.954
  N        1.012      76.081      45.410
  C        3.400      76.211      45.928
  C        4.626      76.169      45.414
  O        9.508      80.723      45.872
  O        6.994      80.888      46.284
  H        4.933      77.469      41.530
  H        7.160      81.665      45.716
  H        3.195      76.267      46.988
  H        5.503      76.193      46.044
  H        6.247      75.235      42.831
  H        6.215      78.276      43.316
  H        8.514      78.241      42.462
  H        9.156      75.955      43.924
  H        0.260      76.075      44.731
  H        8.970      77.231      46.035
  H        0.790      76.000      46.395
  H        9.785      78.161      44.800
  P        9.613      76.698      40.680
  C       10.909      74.476      41.037
  O       10.243      75.328      40.137
  O       10.749      77.196      41.704
  O        9.329      77.764      39.673
  H       11.353      77.801      41.237
  H       11.017      73.490      40.575
  H       10.347      74.356      41.969
  H       11.907      74.870      41.256
  H        8.875      79.559      49.718
  H        8.462      81.046      48.897
  H        9.979      80.250      48.553

 3  4  5  6  7  8  9  10  11  12  13  23  27  28  29  30  32 0
 6-311+G(2d,p)
 ****
 34  35 0
 6-311+G(2d,p)
 ****
 1  2  14  15  16  17  18  19  20  21  22  24  25  26 0
 3-21G
 ****
 31  33  36  37  38  39  40  41  42  43  44  45  46 0
 3-21G
 ****


