%nproc=1
%NoSave
%Mem=1900MB
#P OB98/GEN NMR

erre ene a

0 1
  C       87.359      15.686    -710.133
  O       87.108      15.654    -708.745
  H       88.433      15.815    -710.293
  H       86.839      16.535    -710.588
  H       87.042      14.759    -710.616
  P       85.638      15.275    -708.229
  C       85.323      17.341    -706.715
  O       84.899      16.661    -707.889
  C       84.112      17.717    -705.862
  O       84.536      18.371    -704.647
  C       83.145      18.688    -706.544
  O       82.357      18.023    -707.519
  C       82.374      19.204    -705.333
  O       81.353      18.275    -704.941
  C       83.492      19.297    -704.269
  N       84.022      20.648    -704.101
  C       83.116      21.631    -703.721
  O       81.917      21.416    -703.572
  N       83.634      22.890    -703.550
  C       84.922      23.266    -703.786
  O       85.332      24.413    -703.665
  C       85.834      22.193    -704.217
  C       85.360      20.952    -704.356
  O       85.562      14.241    -707.151
  O       84.887      14.793    -709.563
  H       81.807      17.468    -704.635
  H       84.865      13.819    -709.587
  H       82.992      23.620    -703.285
  H       86.868      22.448    -704.420
  H       86.000      20.153    -704.679
  H       83.113      18.958    -703.288
  H       81.868      20.154    -705.536
  H       83.702      19.520    -706.990
  H       83.592      16.787    -705.588
  H       85.851      18.255    -707.005
  H       86.007      16.697    -706.153
  P       81.821      18.807    -708.807
  C       79.675      19.435    -707.549
  O       80.783      19.925    -708.298
  O       81.319      17.938    -709.915
  O       83.090      19.669    -709.293
  H       83.472      19.270    -710.093
  H       79.050      20.254    -707.260
  H       80.030      18.932    -706.674
  H       79.113      18.751    -708.150

 6  7  8  9  10  11  12  13  14  15  16  26  31  32  33  34  35 0
 6-311+G(2d,p)
 ****
 36  37 0
 6-311+G(2d,p)
 ****
 1  2  3  4  5  17  18  19  20  21  22  23  24  25 0
 3-21G
 ****
 27  28  29  30  38  39  40  41  42  43  44  45 0
 3-21G
 ****


