%nproc=1
%NoSave
%Mem=1900MB
#P OB98/GEN NMR

erre ene a

0 1
  C       25.058    -778.565       0.296
  O       26.007    -779.611       0.238
  H       25.533    -777.643       0.638
  H       24.657    -778.396      -0.711
  H       24.237    -778.836       0.963
  P       26.728    -779.992       1.625
  C       26.573    -782.543       1.199
  O       27.423    -781.431       1.411
  C       27.352    -783.702       0.606
  O       27.570    -783.438      -0.812
  C       28.732    -783.942       1.257
  O       28.893    -785.321       1.622
  C       29.730    -783.598       0.154
  O       30.900    -784.400       0.204
  C       28.921    -783.837      -1.105
  N       31.302    -784.245      -5.603
  C       30.588    -785.128      -4.883
  N       29.895    -784.947      -3.740
  C       29.963    -783.655      -3.373
  C       30.628    -782.617      -3.999
  C       31.348    -782.959      -5.167
  N       32.119    -782.049      -5.850
  N       30.484    -781.424      -3.306
  C       29.773    -781.740      -2.253
  N       29.439    -783.077      -2.230
  O       25.494    -780.311       2.598
  O       27.602    -778.928       2.181
  H       31.493    -784.108      -0.521
  H       25.518    -779.683       3.348
  H       30.574    -786.153      -5.269
  H       29.492    -781.074      -1.447
  H       28.899    -784.897      -1.381
  H       30.028    -782.540       0.246
  H       28.884    -783.305       2.147
  H       26.747    -784.616       0.667
  H       25.766    -782.257       0.504
  H       32.692    -782.412      -6.614
  H       32.257    -781.128      -5.484
  H       26.118    -782.834       2.156
  P       29.214    -785.614       3.168
  C       27.981    -787.905       3.163
  O       29.209    -787.201       3.368
  O       27.883    -785.117       3.907
  O       30.431    -784.899       3.689
  H       28.110    -784.448       4.593
  H       28.136    -788.950       3.333
  H       27.646    -787.753       2.158
  H       27.242    -787.539       3.845

 6  7  8  9  10  11  12  13  14  15  25  28  32  33  34  35 0
 6-311+G(2d,p)
 ****
 36  39  40 0
 6-311+G(2d,p)
 ****
 1  2  3  4  5  16  17  18  19  20  21  22  23  24 0
 3-21G
 ****
 26  27  29  30  31  37  38  41  42  43  44  45  46  47  48 0
 3-21G
 ****


