%nproc=1
%NoSave
%Mem=1900MB
#P OB98/GEN NMR

erre ene a

0 1
  C       89.174      45.448    -124.909
  O       89.569      46.675    -125.489
  P       90.303      46.720    -126.909
  C       92.460      47.602    -125.840
  O       91.881      46.595    -126.659
  C       93.976      47.666    -126.020
  O       94.570      46.431    -125.542
  C       94.425      47.874    -127.474
  O       95.564      48.741    -127.445
  C       94.827      46.478    -127.909
  O       95.726      46.491    -129.012
  C       95.409      45.926    -126.601
  N       95.468      44.473    -126.586
  C       96.626      43.882    -127.093
  O       97.482      44.574    -127.645
  N       96.773      42.522    -126.974
  C       95.773      41.804    -126.562
  N       95.983      40.471    -126.393
  C       94.447      42.379    -126.256
  C       94.376      43.706    -126.246
  O       89.905      47.860    -127.791
  O       89.934      45.318    -127.589
  H       89.553      45.483    -128.474
  H       95.214      46.640    -129.835
  H       93.611      41.729    -126.040
  H       93.453      44.223    -126.005
  H       96.419      46.323    -126.430
  H       93.937      45.910    -128.201
  H       93.645      48.318    -128.099
  H       94.359      48.477    -125.390
  H       96.916      40.120    -126.574
  H       92.235      47.363    -124.797
  H       95.389      39.901    -125.792
  H       92.001      48.573    -126.064
  P       95.644      49.929    -128.524
  C       97.534      48.914    -129.985
  O       96.180      49.308    -129.901
  O       96.924      50.749    -128.006
  O       94.461      50.838    -128.605
  H       96.853      51.674    -128.306
  H       97.739      48.580    -131.006
  H       97.731      48.082    -129.302
  H       98.195      49.751    -129.750
  H       88.704      45.634    -123.966
  H       90.035      44.829    -124.762
  H       88.485      44.952    -125.560

 3  4  5  6  7  8  9  10  11  12  13  24  27  28  29  30  32 0
 6-311+G(2d,p)
 ****
 34  35 0
 6-311+G(2d,p)
 ****
 1  2  14  15  16  17  18  19  20  21  22  23  25  26 0
 3-21G
 ****
 31  33  36  37  38  39  40  41  42  43  44  45  46 0
 3-21G
 ****


