%nproc=1
%NoSave
%Mem=1900MB
#P OB98/GEN NMR

erre ene a

0 1
  C      292.913     577.332    -305.088
  O      292.351     576.605    -304.016
  H      292.620     576.891    -306.042
  H      292.539     578.361    -305.047
  H      294.005     577.352    -305.003
  P      292.750     575.050    -303.912
  C      290.370     574.407    -304.746
  O      291.358     574.271    -303.734
  C      289.302     573.335    -304.559
  O      289.912     572.023    -304.546
  C      288.540     573.454    -303.242
  O      287.491     574.407    -303.304
  C      287.992     572.038    -303.106
  O      286.868     571.866    -303.984
  C      289.186     571.192    -303.588
  N      291.378     567.227    -301.211
  C      290.560     567.298    -302.286
  N      290.036     568.393    -302.867
  C      290.438     569.509    -302.238
  C      291.279     569.594    -301.135
  C      291.757     568.376    -300.606
  N      292.563     568.304    -299.491
  N      291.447     570.910    -300.758
  C      290.740     571.606    -301.631
  N      290.087     570.797    -302.524
  O      293.423     574.925    -302.466
  O      293.615     574.525    -305.009
  H      286.235     572.588    -303.787
  H      293.901     574.080    -302.383
  H      290.290     566.342    -302.730
  H      290.665     572.685    -301.651
  H      288.873     570.279    -304.112
  H      287.648     571.816    -302.093
  H      289.214     573.653    -302.403
  H      288.619     573.371    -305.415
  H      290.841     574.283    -305.727
  H      292.724     567.385    -299.107
  H      292.726     569.139    -298.956
  H      289.917     575.397    -304.687
  P      287.708     575.795    -302.518
  C      285.831     575.318    -300.797
  O      286.298     576.156    -301.842
  O      287.829     576.857    -303.712
  O      288.895     575.816    -301.615
  H      288.427     577.591    -303.467
  H      284.887     575.678    -300.446
  H      286.537     575.324    -299.993
  H      285.718     574.319    -301.164

 6  7  8  9  10  11  12  13  14  15  25  28  32  33  34  35 0
 6-311+G(2d,p)
 ****
 36  39  40 0
 6-311+G(2d,p)
 ****
 1  2  3  4  5  16  17  18  19  20  21  22  23  24 0
 3-21G
 ****
 26  27  29  30  31  37  38  41  42  43  44  45  46  47 0
 3-21G
 ****
 48 0
 3-21G
 ****


