%nproc=1
%NoSave
%Mem=1900MB
#P OB98/GEN NMR

erre ene a

0 1
  C      937.456      -7.472      66.349
  O      938.202      -8.660      66.072
  P      939.231      -9.171      67.197
  C      938.621     -10.171      69.541
  O      938.380     -10.146      68.138
  C      938.471     -11.593      70.079
  O      937.129     -12.096      69.822
  C      939.404     -12.602      69.434
  O      940.736     -12.460      69.916
  C      938.728     -13.915      69.816
  O      939.057     -14.275      71.168
  C      937.231     -13.535      69.731
  N      936.584     -14.038      68.525
  C      935.263     -14.464      68.678
  O      934.669     -14.444      69.756
  N      934.651     -14.927      67.548
  C      935.223     -15.038      66.309
  O      934.613     -15.454      65.331
  C      936.631     -14.623      66.221
  C      937.242     -14.151      67.313
  O      939.422      -7.842      68.065
  O      940.486      -9.743      66.622
  H      938.606      -7.305      68.126
  H      938.808     -15.218      71.271
  H      933.688     -15.229      67.636
  H      937.129     -14.722      65.259
  H      938.279     -13.836      67.269
  H      936.689     -13.933      70.600
  H      939.021     -14.747      69.175
  H      939.394     -12.485      68.340
  H      938.627     -11.568      71.164
  H      937.911      -9.513      70.058
  H      939.628      -9.782      69.733
  P      941.818     -11.866      68.884
  C      943.412      -9.803      69.038
  O      942.706     -10.822      69.710
  O      940.892     -10.948      67.957
  O      942.577     -12.926      68.144
  H      940.256     -10.418      68.463
  H      943.657      -9.011      69.749
  H      942.823      -9.371      68.222
  H      944.348     -10.211      68.630
  H      936.816      -7.251      65.520
  H      938.130      -6.656      66.507
  H      936.863      -7.620      67.228

 3  4  5  6  7  8  9  10  11  12  13  24  28  29  30  31  32 0
 6-311+G(2d,p)
 ****
 33  34 0
 6-311+G(2d,p)
 ****
 1  2  14  15  16  17  18  19  20  21  22  23  25  26  27 0
 3-21G
 ****
 35  36  37  38  39  40  41  42  43  44  45 0
 3-21G
 ****


