%nproc=1
%NoSave
%Mem=1900MB
#P OB98/GEN NMR

erre ene a

0 1
  C     -174.466    -825.760     326.655
  O     -174.042    -824.406     326.889
  P     -174.574    -823.514     328.116
  C     -172.344    -824.002     329.338
  O     -173.305    -823.014     328.959
  C     -171.175    -823.359     330.089
  O     -170.359    -822.584     329.184
  C     -171.564    -822.369     331.180
  O     -172.089    -823.009     332.332
  C     -170.241    -821.643     331.404
  O     -169.396    -822.364     332.317
  C     -169.612    -821.648     329.996
  N     -169.583    -820.332     329.382
  C     -168.602    -819.451     329.841
  O     -167.866    -819.767     330.768
  N     -168.489    -818.222     329.239
  C     -169.355    -817.864     328.334
  N     -169.185    -816.643     327.760
  C     -170.493    -818.712     327.924
  C     -170.546    -819.924     328.474
  O     -175.622    -824.185     328.945
  O     -175.143    -822.177     327.441
  H     -175.824    -821.787     328.019
  H     -169.428    -823.303     332.046
  H     -171.207    -818.360     327.199
  H     -171.333    -820.615     328.222
  H     -168.593    -822.047     330.038
  H     -170.386    -820.641     331.826
  H     -172.299    -821.664     330.772
  H     -170.557    -824.166     330.512
  H     -168.391    -816.091     328.057
  H     -171.966    -824.483     328.432
  H     -169.784    -816.282     327.031
  H     -172.842    -824.762     329.953
  P     -173.147    -822.176     333.203
  C     -175.062    -822.201     331.442
  O     -174.615    -822.612     332.722
  O     -172.991    -820.685     332.658
  O     -172.928    -822.248     334.678
  H     -173.067    -820.056     333.405
  H     -175.793    -822.922     331.079
  H     -174.232    -822.135     330.736
  H     -175.546    -821.220     331.528
  H     -173.976    -826.142     325.784
  H     -175.525    -825.781     326.507
  H     -174.212    -826.365     327.500

 3  4  5  6  7  8  9  10  11  12  13  24  27  28  29  30  32 0
 6-311+G(2d,p)
 ****
 34  35 0
 6-311+G(2d,p)
 ****
 1  2  14  15  16  17  18  19  20  21  22  23  25  26 0
 3-21G
 ****
 31  33  36  37  38  39  40  41  42  43  44  45  46 0
 3-21G
 ****


