%nproc=1
%NoSave
%Mem=1900MB
#P OB98/GEN NMR

erre ene a

0 1
  C     -112.433     -36.222     122.376
  O     -111.775     -34.971     122.374
  H     -113.379     -36.114     122.913
  H     -111.822     -36.964     122.894
  H     -112.644     -36.553     121.357
  P     -110.424     -34.806     121.530
  C     -111.713     -34.830     119.295
  O     -110.815     -34.117     120.132
  C     -112.205     -33.942     118.146
  O     -113.261     -33.081     118.643
  C     -111.114     -33.048     117.549
  O     -111.309     -32.947     116.139
  C     -111.366     -31.702     118.202
  O     -110.891     -30.618     117.406
  C     -112.884     -31.716     118.374
  N     -116.214     -28.161     119.713
  C     -116.121     -28.902     118.552
  N     -117.040     -28.647     117.595
  N     -115.205     -29.811     118.344
  C     -114.366     -29.976     119.395
  C     -114.354     -29.306     120.596
  C     -115.360     -28.286     120.805
  O     -115.483     -27.587     121.806
  N     -113.332     -29.744     121.401
  C     -112.728     -30.676     120.688
  N     -113.310     -30.845     119.458
  O     -109.605     -36.052     121.402
  O     -109.620     -33.653     122.290
  H     -110.609     -29.911     118.026
  H     -108.879     -34.023     122.804
  H     -116.932     -27.465     119.817
  H     -111.868     -31.249     121.008
  H     -113.411     -31.382     117.472
  H     -110.860     -31.661     119.174
  H     -117.787     -27.978     117.698
  H     -110.112     -33.426     117.754
  H     -117.013     -29.198     116.746
  H     -112.651     -34.584     117.377
  H     -112.566     -35.152     119.901
  H     -111.209     -35.717     118.895
  P     -110.246     -33.635     115.153
  C     -111.419     -35.919     115.283
  O     -110.945     -34.887     114.429
  O     -108.909     -33.922     115.753
  O     -110.123     -32.566     113.963
  H     -109.203     -32.569     113.630
  H     -111.862     -36.694     114.694
  H     -112.150     -35.519     115.954
  H     -110.602     -36.321     115.845

 6  7  8  9  10  11  12  13  14  15  26  29  33  34 0
 6-311+G(2d,p)
 ****
 36  38  39  40  41 0
 6-311+G(2d,p)
 ****
 1  2  3  4  5  16  17  18  19  20  21  22  23  24  25 0
 3-21G
 ****
 27  28  30  31  32  35  37  42  43  44  45  46  47 0
 3-21G
 ****
 48  49 0
 3-21G
 ****


