%nproc=1
%NoSave
%Mem=1900MB
#P OB98/GEN NMR

erre ene a

0 1
  C      449.776    -180.958    -424.138
  O      451.044    -180.534    -424.655
  P      452.317    -180.603    -423.681
  C      453.327    -182.948    -424.174
  O      453.430    -181.544    -424.354
  C      454.542    -183.657    -424.779
  O      454.619    -185.036    -424.374
  C      454.536    -183.687    -426.303
  O      455.016    -182.466    -426.854
  C      455.517    -184.813    -426.580
  O      456.870    -184.327    -426.457
  C      455.207    -185.800    -425.452
  N      454.570    -189.978    -428.349
  C      455.606    -189.122    -428.219
  N      455.695    -188.025    -427.441
  C      454.566    -187.847    -426.737
  C      453.425    -188.636    -426.768
  C      453.451    -189.751    -427.624
  N      452.393    -190.619    -427.753
  N      452.459    -188.138    -425.915
  C      453.016    -187.076    -425.366
  N      454.282    -186.855    -425.836
  O      451.783    -181.482    -422.454
  O      452.801    -179.268    -423.223
  H      457.456    -185.103    -426.481
  H      452.190    -181.175    -421.625
  H      456.485    -189.347    -428.815
  H      452.543    -186.443    -424.630
  H      456.108    -186.288    -425.059
  H      455.419    -185.218    -427.594
  H      453.542    -183.950    -426.685
  H      455.449    -183.140    -424.429
  H      452.406    -183.324    -424.635
  H      452.495    -191.413    -428.363
  H      451.562    -190.467    -427.194
  H      453.244    -183.170    -423.102
  P      454.195    -181.839    -428.080
  C      453.220    -179.795    -426.813
  O      454.122    -180.267    -427.796
  O      452.702    -182.358    -427.815
  O      454.698    -182.245    -429.425
  H      452.231    -182.467    -428.663
  H      453.510    -178.777    -426.536
  H      453.251    -180.421    -425.915
  H      452.207    -179.777    -427.218
  H      449.029    -180.855    -424.897
  H      449.514    -180.353    -423.296
  H      449.839    -181.982    -423.835

 3  4  5  6  7  8  9  10  11  12  22  25  29  30  31  32 0
 6-311+G(2d,p)
 ****
 33  36  37 0
 6-311+G(2d,p)
 ****
 1  2  13  14  15  16  17  18  19  20  21  23  24  26 0
 3-21G
 ****
 27  28  34  35  38  39  40  41  42  43  44  45  46  47  48 0
 3-21G
 ****


