%nproc=1
%NoSave
%Mem=1900MB
#P OB98/GEN NMR

erre ene a

0 1
  C       40.082     474.094     647.576
  O       41.187     473.273     647.252
  H       39.984     474.867     646.810
  H       40.239     474.574     648.545
  H       39.161     473.501     647.600
  P       41.491     472.053     648.249
  C       42.999     469.939     648.060
  O       42.239     470.929     647.378
  C       44.162     469.492     647.177
  O       43.661     468.747     646.047
  C       44.965     470.637     646.584
  O       45.873     471.208     647.516
  C       45.647     469.944     645.419
  O       46.838     469.261     645.837
  C       44.589     468.942     644.952
  N       45.082     470.010     639.987
  C       45.939     469.487     640.884
  N       45.729     469.220     642.194
  C       44.467     469.526     642.536
  C       43.477     470.058     641.726
  C       43.822     470.306     640.387
  N       42.953     470.860     639.484
  N       42.324     470.274     642.455
  C       42.600     469.861     643.678
  N       43.886     469.401     643.771
  O       40.038     471.429     648.512
  O       42.174     472.427     649.521
  H       47.148     468.745     645.064
  H       39.699     471.744     649.371
  H       46.935     469.262     640.508
  H       41.918     469.893     644.515
  H       45.018     467.961     644.712
  H       45.939     470.667     644.652
  H       44.285     471.414     646.190
  H       44.812     468.825     647.763
  H       42.364     469.080     648.283
  H       43.368     470.362     649.002
  H       43.291     471.069     638.555
  H       42.056     471.189     639.801
  P       45.868     472.798     647.685
  C       46.480     474.476     649.594
  O       46.369     473.122     649.176
  O       44.303     473.170     647.730
  O       46.587     473.542     646.612
  H       44.162     474.037     647.289
  H       46.825     474.510     650.606
  H       45.523     474.950     649.527
  H       47.176     474.988     648.963

 6  7  8  9  10  11  12  13  14  15  25  28  32  33  34  35 0
 6-311+G(2d,p)
 ****
 36  37  40 0
 6-311+G(2d,p)
 ****
 1  2  3  4  5  16  17  18  19  20  21  22  23  24 0
 3-21G
 ****
 26  27  29  30  31  38  39 41  42  43  44  45  46  47  48 0
 3-21G
 ****


