%nproc=1
%NoSave
%Mem=1900MB
#P OB98/GEN NMR

erre ene a

0 1
  C      103.298    -229.299    -159.671
  O      104.519    -228.590    -159.611
  H      102.773    -229.010    -160.585
  H      102.667    -229.054    -158.813
  H      103.485    -230.375    -159.703
  P      105.429    -228.751    -158.298
  C      105.891    -227.110    -156.346
  O      104.986    -227.523    -157.359
  C      106.163    -225.612    -156.462
  O      106.889    -225.308    -157.671
  C      104.915    -224.736    -156.528
  O      104.253    -224.604    -155.281
  C      105.534    -223.432    -157.002
  O      106.210    -222.792    -155.904
  C      106.549    -223.945    -158.052
  N      106.027    -223.910    -159.416
  C      106.019    -222.664    -160.055
  O      106.436    -221.663    -159.475
  N      105.502    -222.573    -161.324
  C      105.016    -223.629    -161.898
  N      104.472    -223.475    -163.138
  C      105.021    -224.964    -161.272
  C      105.529    -225.033    -160.043
  O      106.901    -228.883    -158.526
  O      104.790    -229.997    -157.521
  H      105.549    -222.656    -155.201
  H      105.327    -230.145    -156.706
  H      104.596    -225.811    -161.790
  H      105.551    -225.976    -159.509
  H      107.477    -223.361    -158.014
  H      104.799    -222.721    -157.390
  H      104.227    -225.097    -157.299
  H      106.811    -225.329    -155.620
  H      104.449    -222.538    -163.519
  H      106.814    -227.686    -156.459
  H      103.840    -224.166    -163.526
  H      105.467    -227.308    -155.358
  P      102.707    -224.169    -155.295
  C      101.529    -221.852    -155.472
  O      102.662    -222.643    -155.790
  O      102.352    -224.072    -153.739
  O      101.784    -225.080    -156.040
  H      101.964    -224.908    -153.415
  H      101.657    -220.868    -155.873
  H      101.422    -221.793    -154.409
  H      100.653    -222.298    -155.895

 6  7  8  9  10  11  12  13  14  15  16  26  30  31  32  33  35 0
 6-311+G(2d,p)
 ****
 37  38 0
 6-311+G(2d,p)
 ****
 1  2  3  4  5  17  18  19  20  21  22  23  24  25 0
 3-21G
 ****
 27  28  29  34  36  39  40  41  42  43  44  45  46 0
 3-21G
 ****


