%nproc=1
%NoSave
%Mem=1900MB
#P OB98/GEN NMR

erre ene a

0 1
  C      223.301    -277.633      50.518
  O      222.302    -277.318      49.562
  P      221.844    -275.805      49.306
  C      221.117    -276.349      46.841
  O      220.799    -275.793      48.103
  C      219.935    -276.107      45.884
  O      218.918    -277.113      46.086
  C      219.296    -274.742      46.111
  O      219.845    -273.785      45.211
  C      217.824    -275.020      45.872
  O      217.527    -275.020      44.468
  C      217.681    -276.445      46.456
  N      217.501    -276.587      47.919
  C      216.429    -275.949      48.537
  O      215.586    -275.276      47.941
  N      216.375    -276.078      49.903
  C      217.233    -276.813      50.675
  O      217.316    -276.727      51.898
  C      218.160    -277.675      49.938
  C      218.265    -277.508      48.615
  O      223.159    -275.144      48.671
  O      221.371    -275.065      50.513
  H      218.104    -275.682      44.046
  H      223.655    -274.650      49.352
  H      215.677    -275.505      50.380
  H      218.766    -278.377      50.493
  H      218.975    -278.112      48.050
  H      216.853    -276.983      45.974
  H      217.211    -274.241      46.309
  H      219.433    -274.428      47.150
  H      220.294    -276.200      44.849
  H      221.310    -277.417      46.944
  H      222.023    -275.880      46.441
  P      220.277    -272.338      45.762
  C      222.274    -272.071      44.170
  O      220.979    -271.602      44.524
  O      221.058    -272.342      47.032
  O      218.872    -271.577      45.929
  H      218.584    -271.625      46.862
  H      222.557    -271.624      43.214
  H      222.275    -273.159      44.071
  H      222.988    -271.772      44.941
  H      223.458    -278.691      50.534
  H      222.985    -277.305      51.486
  H      224.214    -277.141      50.255

 3  4  5  6  7  8  9  10  11  12  13  23  28  29  30  31  32 0
 6-311+G(2d,p)
 ****
 33  34 0
 6-311+G(2d,p)
 ****
 1  2  14  15  16  17  18  19  20  21  22  24  25  26  27 0
 3-21G
 ****
 35  36  37  38  39  40  41  42  43  44  45 0
 3-21G
 ****


