%nproc=1
%NoSave
%Mem=1900MB
#P OB98/GEN NMR

erre ene a

0 1
  C     -278.620    -489.417    -242.213
  O     -277.468    -488.645    -242.565
  P     -277.521    -487.344    -243.489
  C     -275.273    -486.792    -242.335
  O     -276.058    -486.669    -243.515
  C     -273.896    -486.151    -242.526
  O     -273.016    -487.051    -243.251
  C     -273.878    -484.879    -243.370
  O     -274.411    -483.769    -242.672
  C     -272.392    -484.759    -243.713
  O     -271.666    -484.112    -242.661
  C     -271.970    -486.242    -243.824
  N     -271.667    -486.638    -245.191
  C     -270.472    -487.323    -245.404
  O     -269.680    -487.496    -244.471
  N     -270.194    -487.789    -246.669
  C     -270.987    -487.485    -247.652
  N     -270.667    -487.994    -248.878
  C     -272.188    -486.655    -247.507
  C     -272.475    -486.269    -246.255
  O     -278.615    -486.379    -243.127
  O     -277.715    -487.899    -244.989
  H     -278.160    -487.212    -245.528
  H     -271.632    -484.745    -241.915
  H     -272.808    -486.404    -248.351
  H     -273.346    -485.654    -246.043
  H     -271.087    -486.414    -243.194
  H     -272.232    -484.180    -244.630
  H     -274.458    -485.051    -244.295
  H     -273.457    -485.956    -241.540
  H     -269.843    -488.569    -248.948
  H     -275.138    -487.859    -242.115
  H     -271.236    -487.844    -249.709
  H     -275.808    -486.326    -241.494
  P     -275.536    -482.903    -243.433
  C     -275.693    -481.543    -241.203
  O     -275.700    -481.522    -242.617
  O     -276.896    -483.689    -243.106
  O     -275.330    -482.749    -244.900
  H     -277.469    -483.679    -243.890
  H     -275.340    -480.579    -240.842
  H     -275.052    -482.330    -240.821
  H     -276.721    -481.693    -240.850
  H     -278.325    -490.234    -241.589
  H     -279.081    -489.795    -243.101
  H     -279.316    -488.799    -241.685

 3  4  5  6  7  8  9  10  11  12  13  24  27  28  29  30  32 0
 6-311+G(2d,p)
 ****
 34  35 0
 6-311+G(2d,p)
 ****
 1  2  14  15  16  17  18  19  20  21  22  23  25  26 0
 3-21G
 ****
 31  33  36  37  38  39  40  41  42  43  44  45  46 0
 3-21G
 ****


