%nproc=1
%NoSave
%Mem=1900MB
#P OB98/GEN NMR

erre ene a

0 1
  C     -855.852     413.263    -304.683
  O     -856.020     414.267    -305.663
  H     -855.496     412.354    -305.177
  H     -856.804     413.042    -304.195
  H     -855.112     413.568    -303.938
  P     -856.442     415.740    -305.189
  C     -855.339     417.153    -307.036
  O     -855.276     416.732    -305.683
  C     -854.170     416.566    -307.831
  O     -854.267     415.114    -307.811
  C     -854.141     417.010    -309.293
  O     -852.778     417.201    -309.688
  C     -854.723     415.825    -310.039
  O     -854.266     415.754    -311.389
  C     -854.260     414.657    -309.175
  N     -855.841     411.114    -312.419
  C     -854.882     412.101    -312.566
  N     -854.265     412.172    -313.766
  N     -854.558     412.947    -311.619
  C     -855.242     412.751    -310.467
  C     -856.217     411.822    -310.199
  C     -856.578     410.902    -311.259
  O     -857.426     410.018    -311.184
  N     -856.698     411.969    -308.917
  C     -856.016     412.981    -308.420
  N     -855.127     413.495    -309.325
  O     -856.797     415.871    -303.744
  O     -857.669     416.117    -306.140
  H     -854.521     416.594    -311.823
  H     -858.518     415.989    -305.676
  H     -856.062     410.504    -313.176
  H     -856.132     413.378    -307.426
  H     -853.245     414.326    -309.426
  H     -855.813     415.902    -310.052
  H     -854.453     411.549    -314.531
  H     -854.705     417.933    -309.473
  H     -853.537     412.868    -313.893
  H     -853.235     416.831    -307.320
  H     -855.289     418.244    -307.061
  H     -856.288     416.829    -307.473
  P     -852.217     418.698    -309.838
  C     -850.137     418.655    -308.314
  O     -851.481     419.101    -308.466
  O     -853.188     419.703    -310.360
  O     -850.981     418.510    -310.845
  H     -850.875     419.329    -311.364
  H     -849.757     418.982    -307.369
  H     -849.535     419.061    -309.100
  H     -850.109     417.586    -308.359

 6  7  8  9  10  11  12  13  14  15  26  29  33  34 0
 6-311+G(2d,p)
 ****
 36  38  39  40  41 0
 6-311+G(2d,p)
 ****
 1  2  3  4  5  16  17  18  19  20  21  22  23  24  25 0
 3-21G
 ****
 27  28  30  31  32  35  37  42  43  44  45  46  47 0
 3-21G
 ****
 48  49 0
 3-21G
 ****


