%nproc=1
%NoSave
%Mem=1900MB
#P OB98/GEN NMR

erre ene a

0 1
  C     -389.823      49.385      14.555
  O     -389.303      48.462      13.623
  H     -389.821      50.379      14.102
  H     -389.198      49.405      15.452
  H     -390.850      49.120      14.823
  P     -389.239      46.921      14.073
  C     -386.679      46.963      13.598
  O     -387.929      46.333      13.345
  C     -385.871      47.082      12.301
  O     -385.423      45.764      11.900
  C     -386.669      47.678      11.141
  O     -385.853      48.613      10.435
  C     -386.997      46.484      10.264
  O     -387.197      46.852       8.899
  C     -385.806      45.556      10.526
  N     -386.141      44.156      10.276
  C     -385.227      43.417       9.520
  O     -384.204      43.950       9.088
  N     -385.515      42.108       9.223
  C     -386.647      41.599       9.598
  N     -386.884      40.304       9.256
  C     -387.660      42.354      10.355
  C     -387.345      43.613      10.662
  O     -390.447      46.262      13.264
  O     -389.292      46.685      15.545
  H     -386.317      47.033       8.502
  H     -390.661      45.359      13.605
  H     -388.599      41.893      10.631
  H     -388.033      44.245      11.215
  H     -384.954      45.832       9.892
  H     -387.922      46.013      10.620
  H     -387.580      48.182      11.466
  H     -384.968      47.668      12.506
  H     -386.169      39.820       8.727
  H     -386.120      46.368      14.325
  H     -387.742      39.817       9.467
  H     -386.859      47.962      14.008
  P     -386.235      50.163      10.627
  C     -386.529      50.854       8.145
  O     -385.736      50.949       9.318
  O     -385.236      50.655      11.776
  O     -387.668      50.383      10.982
  H     -385.693      50.671      12.638
  H     -386.076      51.424       7.361
  H     -387.508      51.237       8.344
  H     -386.601      49.829       7.845

 6  7  8  9  10  11  12  13  14  15  16  26  30  31  32  33  35 0
 6-311+G(2d,p)
 ****
 37  38 0
 6-311+G(2d,p)
 ****
 1  2  3  4  5  17  18  19  20  21  22  23  24  25 0
 3-21G
 ****
 27  28  29  34  36  39  40  41  42  43  44  45  46 0
 3-21G
 ****


