%nproc=1
%NoSave
%Mem=1900MB
#P OB98/GEN NMR

erre ene a

0 1
  C     -101.847    -138.623      43.230
  O     -101.721    -137.889      44.446
  P     -102.721    -136.662      44.722
  C     -103.215    -137.187      47.191
  O     -102.637    -136.266      46.278
  C     -102.453    -137.248      48.522
  O     -101.274    -138.090      48.405
  C     -101.988    -135.881      49.048
  O     -102.087    -135.923      50.475
  C     -100.536    -135.844      48.615
  O      -99.775    -134.883      49.329
  C     -100.141    -137.307      48.842
  N      -98.925    -137.674      48.133
  C      -97.788    -137.925      48.904
  O      -97.811    -137.731      50.117
  N      -96.645    -138.359      48.266
  C      -96.607    -138.388      46.970
  N      -95.469    -138.842      46.378
  C      -97.737    -137.958      46.118
  C      -98.859    -137.641      46.761
  O     -104.106    -136.834      44.192
  O     -101.980    -135.429      44.005
  H      -99.841    -135.074      50.292
  H     -102.656    -134.831      43.637
  H      -97.630    -137.918      45.045
  H      -99.743    -137.316      46.228
  H      -99.994    -137.510      49.910
  H     -100.476    -135.594      47.547
  H     -102.585    -135.044      48.676
  H     -103.116    -137.719      49.268
  H      -94.694    -139.113      46.973
  H     -103.230    -138.182      46.738
  H      -95.381    -138.944      45.374
  H     -104.270    -136.919      47.350
  P     -103.383    -135.291      51.187
  C     -103.953    -137.265      52.781
  O     -103.508    -135.934      52.650
  O     -104.579    -136.031      50.401
  O     -103.538    -133.809      51.077
  H     -105.373    -135.472      50.445
  H     -103.714    -137.622      53.786
  H     -103.462    -137.924      52.057
  H     -105.042    -137.309      52.645
  H     -101.111    -139.400      43.204
  H     -101.700    -137.965      42.399
  H     -102.824    -139.055      43.174

 3  4  5  6  7  8  9  10  11  12  13  23  27  28  29  30  32 0
 6-311+G(2d,p)
 ****
 34  35 0
 6-311+G(2d,p)
 ****
 1  2  14  15  16  17  18  19  20  21  22  24  25  26 0
 3-21G
 ****
 31  33  36  37  38  39  40  41  42  43  44  45  46 0
 3-21G
 ****


