%nproc=1
%NoSave
%Mem=1900MB
#P OB98/GEN NMR

erre ene a

0 1
  C      354.865     -80.217     197.231
  O      355.984     -79.808     196.437
  P      356.042     -78.266     195.989
  C      358.646     -77.990     196.065
  O      357.385     -77.680     196.641
  C      359.657     -76.892     196.399
  O      359.313     -75.660     195.718
  C      359.720     -76.532     197.874
  O      360.402     -77.529     198.621
  C      360.425     -75.185     197.815
  O      361.843     -75.367     197.667
  C      359.839     -74.575     196.521
  N      358.822     -73.563     196.779
  C      359.168     -72.257     196.435
  O      360.264     -71.953     195.968
  N      358.213     -71.308     196.668
  C      356.985     -71.523     197.227
  O      356.166     -70.632     197.399
  C      356.696     -72.913     197.612
  C      357.613     -73.857     197.374
  O      354.865     -77.641     196.874
  O      355.898     -78.079     194.515
  H      354.785     -78.058     197.749
  H      361.965     -75.964     196.901
  H      358.439     -70.358     196.416
  H      355.741     -73.117     198.081
  H      357.419     -74.886     197.654
  H      360.635     -74.113     195.926
  H      360.263     -74.585     198.713
  H      358.709     -76.403     198.271
  H      360.642     -77.217     196.045
  H      358.549     -78.070     194.979
  H      358.977     -78.963     196.443
  P      359.496     -78.637     199.352
  C      361.041     -80.484     198.338
  O      359.732     -80.008     198.566
  O      358.029     -78.178     198.904
  O      359.698     -78.694     200.831
  H      357.975     -77.947     197.964
  H      360.995     -81.552     198.116
  H      361.679     -80.335     199.214
  H      361.473     -79.965     197.477
  H      354.950     -81.259     197.458
  H      353.960     -80.043     196.688
  H      354.849     -79.654     198.141

 3  4  5  6  7  8  9  10  11  12  13  24  28  29  30  31  32 0
 6-311+G(2d,p)
 ****
 33  34 0
 6-311+G(2d,p)
 ****
 1  2  14  15  16  17  18  19  20  21  22  23  25  26  27 0
 3-21G
 ****
 35  36  37  38  39  40  41  42  43  44  45 0
 3-21G
 ****


