%nproc=1
%NoSave
%Mem=1900MB
#P OB98/GEN NMR

erre ene a

0 1
  C       81.656     448.707    -144.213
  O       81.525     448.772    -142.801
  P       80.439     447.815    -142.107
  C       82.136     446.108    -141.162
  O       81.083     446.341    -142.082
  C       81.625     446.168    -139.724
  O       80.423     445.361    -139.616
  C       82.626     445.651    -138.675
  O       82.625     446.541    -137.545
  C       82.016     444.334    -138.226
  O       82.428     443.979    -136.913
  C       80.528     444.653    -138.365
  N       76.114     442.871    -136.671
  C       76.581     444.170    -136.728
  N       75.773     445.121    -136.207
  N       77.729     444.509    -137.246
  C       78.419     443.464    -137.759
  C       78.059     442.133    -137.773
  C       76.808     441.764    -137.139
  O       76.387     440.622    -136.979
  N       79.012     441.365    -138.397
  C       79.943     442.227    -138.758
  N       79.651     443.506    -138.350
  O       79.292     447.713    -143.219
  O       79.896     448.306    -140.809
  H       82.200     443.038    -136.784
  H       78.437     447.992    -142.837
  H       75.229     442.665    -136.246
  H       80.854     441.967    -139.284
  H       80.207     445.332    -137.561
  H       82.326     443.542    -138.917
  H       74.854     444.935    -135.825
  H       83.645     445.531    -139.051
  H       76.082     446.082    -136.257
  H       81.334     447.203    -139.502
  H       82.914     446.868    -141.297
  H       82.571     445.123    -141.362
  P       84.025     446.692    -136.773
  C       84.175     449.077    -137.822
  O       84.823     447.845    -137.545
  O       84.813     445.355    -137.167
  O       83.884     446.870    -135.298
  H       85.479     445.142    -136.485
  H       83.215     449.154    -137.309
  H       84.017     449.160    -138.898
  H       84.820     449.896    -137.489
  H       82.411     449.394    -144.533
  H       80.723     448.964    -144.670
  H       81.933     447.714    -144.500

 3  4  5  6  7  8  9  10  11  12  23  26  30  31  33  0
 6-311+G(2d,p)
 ****
 35  36  37  38 0
 6-311+G(2d,p)
 ****
 1  2  13  14  15  16  17  18  19  20  21  22  24  25  27  28  29 0
 3-21G
 ****
 32  34  39  40  41  42  43  44  45  46  47  48  49 0
 3-21G
 ****


