%nproc=1
%NoSave
%Mem=1900MB
#P OB98/GEN NMR

erre ene a

0 1
  C     -826.648     887.064     116.033
  O     -827.827     886.863     116.804
  H     -826.579     886.266     115.290
  H     -825.757     887.032     116.668
  H     -826.699     888.026     115.522
  P     -828.002     887.731     118.151
  C     -828.886     889.656     116.671
  O     -827.942     889.275     117.676
  C     -830.062     890.432     117.282
  O     -829.582     891.534     118.090
  C     -830.976     891.078     116.241
  O     -831.710     890.173     115.453
  C     -831.717     892.102     117.097
  O     -832.824     891.526     117.797
  C     -830.611     892.539     118.104
  N     -830.087     893.870     117.800
  C     -830.002     894.746     118.865
  O     -830.375     894.478     120.018
  N     -829.513     895.995     118.573
  C     -829.157     896.438     117.342
  O     -828.726     897.574     117.140
  C     -829.292     895.477     116.241
  C     -829.744     894.240     116.510
  O     -827.056     887.401     119.270
  O     -829.541     887.535     118.529
  H     -833.268     892.241     118.274
  H     -829.722     887.819     119.464
  H     -829.433     896.637     119.341
  H     -829.018     895.792     115.238
  H     -829.866     893.522     115.721
  H     -831.019     892.549     119.123
  H     -832.115     892.931     116.487
  H     -830.346     891.667     115.552
  H     -830.612     889.756     117.931
  H     -829.263     888.747     116.194
  H     -828.376     890.272     115.919
  P     -832.136     890.462     113.959
  C     -830.417     888.892     112.748
  O     -830.870     890.227     112.994
  O     -832.962     891.678     113.713
  O     -833.043     889.164     113.615
  H     -833.749     889.460     113.022
  H     -829.573     888.917     112.090
  H     -831.204     888.326     112.296
  H     -830.135     888.435     113.673

 6  7  8  9  10  11  12  13  14  15  16  26  31  32  33  34  35 0
 6-311+G(2d,p)
 ****
 36  37 0
 6-311+G(2d,p)
 ****
 1  2  3  4  5  17  18  19  20  21  22  23  24  25 0
 3-21G
 ****
 27  28  29  30  38  39  40  41  42  43  44  45 0
 3-21G
 ****


