%nproc=1
%NoSave
%Mem=1900MB
#P OB98/GEN NMR

erre ene a

0 1
  C     -487.603    -470.981      10.250
  O     -487.305    -470.640      11.599
  P     -488.387    -469.800      12.427
  C     -489.044    -471.946      13.750
  O     -489.488    -470.827      12.982
  C     -489.711    -471.949      15.136
  O     -491.129    -471.668      14.991
  C     -489.574    -473.293      15.883
  O     -489.469    -473.035      17.288
  C     -490.912    -473.965      15.631
  O     -491.200    -474.935      16.627
  C     -491.857    -472.754      15.630
  N     -496.586    -474.463      16.173
  C     -495.675    -474.082      17.141
  N     -496.047    -474.256      18.422
  N     -494.499    -473.573      16.869
  C     -494.258    -473.447      15.539
  C     -495.080    -473.781      14.482
  C     -496.374    -474.369      14.792
  O     -497.218    -474.754      13.983
  N     -494.508    -473.493      13.284
  C     -493.316    -473.025      13.587
  N     -493.092    -473.012      14.944
  O     -489.172    -468.993      11.289
  O     -487.802    -468.876      13.449
  H     -490.499    -475.607      16.603
  H     -488.888    -468.046      11.306
  H     -497.462    -474.864      16.436
  H     -492.558    -472.690      12.877
  H     -492.082    -472.429      16.657
  H     -490.905    -474.459      14.653
  H     -496.912    -474.719      18.706
  H     -488.727    -473.905      15.546
  H     -495.388    -474.026      19.157
  H     -489.282    -471.133      15.719
  H     -487.961    -471.883      13.876
  H     -489.277    -472.880      13.216
  P     -488.556    -474.056      18.107
  C     -486.639    -472.295      17.851
  O     -487.037    -473.662      17.788
  O     -488.754    -475.439      17.334
  O     -488.900    -474.159      19.564
  H     -488.589    -476.203      17.938
  H     -485.895    -472.183      18.629
  H     -487.492    -471.641      18.066
  H     -486.206    -472.002      16.887
  H     -486.789    -471.538       9.835
  H     -487.751    -470.087       9.681
  H     -488.493    -471.575      10.220

 3  4  5  6  7  8  9  10  11  12  23  26  30  31 0
 6-311+G(2d,p)
 ****
 33  35  36  37  38 0
 6-311+G(2d,p)
 ****
 1  2  13  14  15  16  17  18  19  20  21  22  24  25 0
 3-21G
 ****
 27  28  29  32  34  39  40  41  42  43  44  45  46  47  48  49 0
 3-21G
 ****


