%nproc=1
%NoSave
%Mem=1900MB
#P OB98/GEN NMR

erre ene a

0 1
  C      354.916     394.558    -647.859
  O      354.721     393.365    -648.626
  P      355.423     393.144    -650.064
  C      356.982     391.689    -648.620
  O      356.820     392.400    -649.846
  C      358.001     390.550    -648.754
  O      357.480     389.506    -649.596
  C      359.339     390.966    -649.367
  O      360.148     391.609    -648.403
  C      359.868     389.616    -649.849
  O      360.467     388.890    -648.768
  C      358.593     388.912    -650.330
  N      360.114     387.322    -654.944
  C      360.505     386.991    -653.693
  N      360.056     387.467    -652.510
  C      359.079     388.352    -652.709
  C      358.570     388.803    -653.924
  C      359.136     388.251    -655.078
  N      358.742     388.605    -656.357
  N      357.585     389.742    -653.718
  C      357.486     389.857    -652.396
  N      358.363     389.033    -651.746
  O      355.504     394.389    -650.890
  O      354.527     392.027    -650.788
  H      359.786     388.749    -648.089
  H      354.566     392.146    -651.757
  H      361.297     386.231    -653.634
  H      356.786     390.515    -651.893
  H      358.593     387.857    -650.081
  H      360.635     389.717    -650.632
  H      359.173     391.622    -650.219
  H      358.145     390.113    -647.759
  H      356.012     391.275    -648.340
  H      359.207     388.177    -657.133
  H      358.045     389.319    -656.473
  H      357.311     392.389    -647.858
  P      360.402     393.192    -648.503
  C      359.474     393.283    -646.114
  O      359.498     393.899    -647.390
  O      360.294     393.772    -649.878
  O      361.882     393.363    -647.915
  H      362.305     394.149    -648.335
  H      358.787     392.431    -646.129
  H      359.115     394.016    -645.379
  H      360.473     392.944    -645.831
  H      354.361     394.490    -646.947
  H      354.577     395.403    -648.421
  H      355.956     394.672    -647.636

 3  4  5  6  7  8  9  10  11  12  22  25  29  30  31  32 0
 6-311+G(2d,p)
 ****
 33  36  37 0
 6-311+G(2d,p)
 ****
 1  2  13  14  15  16  17  18  19  20  21  23  24  26 0
 3-21G
 ****
 27  28  34  35  38  39  40  41  42  43  44  45  46  47  48 0
 3-21G
 ****


