%nproc=1
%NoSave
%Mem=1900MB
#P OB98/GEN NMR

erre ene a

0 1
  C      -95.745     317.897    -249.216
  O      -96.405     316.984    -248.358
  H      -94.671     317.723    -249.149
  H      -95.955     318.919    -248.898
  H      -96.057     317.755    -250.254
  P      -97.994     316.822    -248.475
  C      -97.778     314.367    -249.225
  O      -98.254     315.659    -249.553
  C      -97.982     313.393    -250.399
  O      -97.137     313.816    -251.507
  C      -97.615     311.937    -250.071
  O      -98.463     311.094    -250.859
  C      -96.182     311.861    -250.566
  O      -95.760     310.526    -250.742
  C      -96.280     312.712    -251.840
  N      -94.969     313.161    -252.315
  C      -94.197     312.215    -252.988
  O      -94.553     311.050    -253.151
  N      -92.958     312.634    -253.416
  C      -92.424     313.868    -253.190
  O      -91.305     314.183    -253.574
  C      -93.265     314.810    -252.441
  C      -94.486     314.419    -252.048
  O      -98.761     318.085    -248.717
  O      -98.419     316.120    -247.100
  H      -96.406     310.039    -251.293
  H      -99.333     316.396    -246.850
  H      -92.395     311.971    -253.903
  H      -92.862     315.801    -252.238
  H      -95.129     315.094    -251.493
  H      -96.753     312.145    -252.644
  H      -95.493     312.326    -249.848
  H      -97.708     311.694    -249.014
  H      -99.014     313.468    -250.735
  H      -98.335     314.011    -248.352
  H      -96.712     314.412    -248.970
  P      -99.881     310.566    -250.325
  C     -101.191     311.848    -252.127
  O     -101.009     311.633    -250.733
  O      -99.892     310.190    -248.876
  O     -100.215     309.298    -251.244
  H     -100.785     308.679    -250.752
  H     -101.963     312.574    -252.278
  H     -101.470     310.928    -252.596
  H     -100.277     312.204    -252.555

 6  7  8  9  10  11  12  13  14  15  16  26  31  32  33  34  35 0
 6-311+G(2d,p)
 ****
 36  37 0
 6-311+G(2d,p)
 ****
 1  2  3  4  5  17  18  19  20  21  22  23  24  25 0
 3-21G
 ****
 27  28  29  30  38  39  40  41  42  43  44  45 0
 3-21G
 ****


