%nproc=1
%NoSave
%Mem=1900MB
#P OB98/GEN NMR

erre ene a

0 1
  C      -68.779    -438.337     368.154
  O      -69.525    -438.290     366.951
  H      -68.690    -439.371     368.500
  H      -67.778    -437.940     367.964
  H      -69.262    -437.727     368.922
  P      -71.021    -438.869     367.006
  C      -72.811    -438.264     368.783
  O      -71.912    -437.783     367.791
  C      -73.198    -437.128     369.732
  O      -71.998    -436.669     370.408
  C      -73.851    -435.915     369.046
  O      -75.144    -435.668     369.606
  C      -72.942    -434.749     369.395
  O      -73.657    -433.549     369.707
  C      -72.153    -435.259     370.597
  N      -69.586    -431.519     372.929
  C      -70.708    -432.183     373.275
  N      -71.282    -433.241     372.670
  C      -70.561    -433.624     371.601
  C      -69.385    -433.062     371.135
  C      -68.902    -431.945     371.839
  N      -67.788    -431.231     371.449
  N      -68.939    -433.723     370.004
  C      -69.853    -434.639     369.769
  N      -70.861    -434.607     370.695
  O      -70.906    -440.083     368.042
  O      -71.577    -439.312     365.694
  H      -74.275    -433.392     368.970
  H      -71.343    -440.874     367.672
  H      -71.221    -431.807     374.165
  H      -69.859    -435.322     368.923
  H      -72.690    -435.100     371.543
  H      -72.283    -434.540     368.547
  H      -73.936    -436.040     367.959
  H      -73.866    -437.533     370.500
  H      -72.327    -439.057     369.363
  H      -67.585    -430.375     371.943
  H      -67.336    -431.473     370.576
  H      -73.698    -438.678     368.293
  P      -76.385    -436.435     368.926
  C      -77.147    -438.928     368.895
  O      -76.478    -437.888     369.600
  O      -75.845    -436.747     367.451
  O      -77.647    -435.644     368.905
  H      -76.595    -436.815     366.830
  H      -77.121    -439.826     369.476
  H      -76.659    -439.095     367.958
  H      -78.164    -438.644     368.722

 6  7  8  9  10  11  12  13  14  15  25  28  32  33  34  35 0
 6-311+G(2d,p)
 ****
 36  39  40 0
 6-311+G(2d,p)
 ****
 1  2  3  4  5  16  17  18  19  20  21  22  23  24 0
 3-21G
 ****
 26  27  29  30  31  37  38  41  42  43  44  45  46  47  48 0
 3-21G
 ****


