%nproc=1
%NoSave
%Mem=1900MB
#P OB98/GEN NMR

erre ene a

0 1
  C     -232.061     836.885    -184.480
  O     -232.477     837.427    -185.717
  H     -231.792     837.705    -183.807
  H     -231.188     836.246    -184.623
  H     -232.874     836.309    -184.028
  P     -232.915     836.384    -186.854
  C     -234.309     837.987    -188.343
  O     -233.106     837.245    -188.201
  C     -234.236     839.286    -187.545
  O     -233.115     840.074    -188.031
  C     -235.499     840.155    -187.654
  O     -235.744     840.766    -186.380
  C     -235.093     841.228    -188.650
  O     -235.879     842.408    -188.516
  C     -233.621     841.401    -188.292
  N     -230.951     845.517    -189.425
  C     -231.534     845.126    -188.233
  N     -231.400     845.966    -187.178
  N     -232.209     844.016    -188.089
  C     -232.251     843.261    -189.215
  C     -231.714     843.539    -190.454
  C     -230.993     844.785    -190.606
  O     -230.471     845.195    -191.634
  N     -232.006     842.537    -191.349
  C     -232.700     841.659    -190.649
  N     -232.875     842.052    -189.354
  O     -234.414     835.996    -186.448
  O     -232.041     835.183    -186.998
  H     -235.444     843.116    -189.035
  H     -234.626     835.088    -186.732
  H     -230.457     846.388    -189.478
  H     -233.103     840.733    -191.037
  H     -233.479     842.006    -187.386
  H     -235.204     840.853    -189.672
  H     -230.869     846.821    -187.211
  H     -236.384     839.601    -187.974
  H     -231.813     845.689    -186.297
  H     -234.013     839.041    -186.499
  H     -235.148     837.382    -187.980
  H     -234.469     838.210    -189.404
  P     -236.940     840.177    -185.492
  C     -235.973     841.129    -183.279
  O     -237.088     841.067    -184.165
  O     -236.334     838.793    -184.952
  O     -238.208     839.952    -186.254
  H     -236.766     838.049    -185.400
  H     -236.215     841.754    -182.445
  H     -235.129     841.535    -183.796
  H     -235.739     840.145    -182.931

 6  7  8  9  10  11  12  13  14  15  26  29  33  34 0
 6-311+G(2d,p)
 ****
 36  38  39  40  41 0
 6-311+G(2d,p)
 ****
 1  2  3  4  5  16  17  18  19  20  21  22  23  24  25 0
 3-21G
 ****
 27  28  30  31  32  35  37  42  43  44  45  46  47 0
 3-21G
 ****
 48  49 0
 3-21G
 ****


