%nproc=1
%NoSave
%Mem=1900MB
#P OB98/GEN NMR

erre ene a

0 1
  C      -26.146    -124.758    -104.690
  O      -26.899    -124.887    -105.878
  H      -26.486    -125.514    -103.978
  H      -26.292    -123.770    -104.245
  H      -25.085    -124.924    -104.894
  P      -26.670    -123.809    -107.046
  C      -24.983    -125.348    -108.270
  O      -25.188    -124.122    -107.586
  C      -25.029    -125.125    -109.780
  O      -24.008    -124.196    -110.197
  C      -24.784    -126.374    -110.620
  O      -25.884    -127.268    -110.638
  C      -24.531    -125.734    -111.975
  O      -25.781    -125.311    -112.548
  C      -23.665    -124.515    -111.575
  N      -22.231    -124.769    -111.699
  C      -21.721    -124.863    -113.000
  O      -22.462    -124.734    -113.973
  N      -20.385    -125.138    -113.170
  C      -19.630    -125.322    -112.133
  N      -18.324    -125.639    -112.357
  C      -20.121    -125.216    -110.746
  C      -21.416    -124.945    -110.602
  O      -26.933    -122.382    -106.689
  O      -27.572    -124.338    -108.257
  H      -25.598    -125.043    -113.467
  H      -27.474    -123.697    -109.003
  H      -19.450    -125.387    -109.917
  H      -21.855    -124.868    -109.614
  H      -23.922    -123.639    -112.181
  H      -24.058    -126.412    -112.691
  H      -23.870    -126.886    -110.300
  H      -25.997    -124.665    -110.016
  H      -18.033    -125.745    -113.319
  H      -25.762    -126.049    -107.953
  H      -17.754    -126.064    -111.634
  H      -24.005    -125.764    -108.013
  P      -25.606    -128.793    -111.058
  C      -24.757    -129.242    -108.637
  O      -24.515    -129.362    -110.029
  O      -24.794    -128.642    -112.426
  O      -26.819    -129.656    -111.202
  H      -25.391    -128.690    -113.197
  H      -23.939    -129.668    -108.095
  H      -25.659    -129.760    -108.386
  H      -24.856    -128.208    -108.380

 6  7  8  9  10  11  12  13  14  15  16  26  30  31  32  33  35 0
 6-311+G(2d,p)
 ****
 37  38 0
 6-311+G(2d,p)
 ****
 1  2  3  4  5  17  18  19  20  21  22  23  24  25 0
 3-21G
 ****
 27  28  29  34  36  39  40  41  42  43  44  45  46 0
 3-21G
 ****


