%nproc=1
%NoSave
%Mem=1900MB
#P OB98/GEN NMR

erre ene a

0 1
  C     -137.430      18.891     102.051
  O     -137.585      20.295     102.193
  P     -136.390      21.208     102.752
  C     -135.196      23.313     101.881
  O     -136.053      22.223     101.557
  C     -134.194      23.548     100.753
  O     -133.226      22.469     100.775
  C     -134.769      23.547      99.340
  O     -135.311      24.791      98.923
  C     -133.514      23.247      98.524
  O     -132.729      24.447      98.387
  C     -132.787      22.234      99.412
  N     -131.610      18.436      96.189
  C     -131.118      19.687      96.332
  N     -131.499      20.646      97.200
  C     -132.466      20.193      98.010
  C     -133.067      18.940      97.997
  C     -132.596      18.033      97.026
  N     -133.082      16.747      96.901
  N     -134.035      18.852      98.975
  C     -134.014      20.019      99.578
  N     -133.077      20.862      99.041
  O     -135.233      20.446     103.298
  O     -137.086      22.150     103.840
  H     -132.676      24.856      99.275
  H     -136.406      22.549     104.418
  H     -130.319      19.959      95.649
  H     -134.652      20.305     100.398
  H     -131.699      22.365      99.394
  H     -133.738      22.896      97.512
  H     -135.491      22.732      99.201
  H     -133.657      24.482     100.957
  H     -134.653      23.063     102.801
  H     -132.600      16.133      96.271
  H     -133.696      16.399      97.627
  H     -135.795      24.209     102.070
  P     -136.053      24.824      97.493
  C     -137.421      26.764      96.379
  O     -137.059      26.073      97.557
  O     -136.664      23.533      97.081
  O     -134.902      25.336      96.507
  H     -134.610      26.256      96.650
  H     -138.229      27.459      96.616
  H     -137.778      26.069      95.613
  H     -136.568      27.329      96.000
  H     -138.335      18.469     101.666
  H     -137.213      18.458     103.005
  H     -136.626      18.687     101.375

 3  4  5  6  7  8  9  10  11  12  22  25  29  30  31  32 0
 6-311+G(2d,p)
 ****
 33  36  37 0
 6-311+G(2d,p)
 ****
 1  2  13  14  15  16  17  18  19  20  21  23  24  26 0
 3-21G
 ****
 27  28  34  35  38  39  40  41  42  43  44  45  46  47  48 0
 3-21G
 ****


