%nproc=1
%NoSave
%Mem=1900MB
#P OB98/GEN NMR

erre ene a

0 1
  C     -712.399    -685.427    -627.163
  O     -712.957    -684.460    -628.044
  P     -714.474    -684.643    -628.512
  C     -715.501    -682.206    -628.487
  O     -714.893    -683.258    -629.228
  C     -716.452    -681.412    -629.378
  O     -715.660    -680.625    -630.336
  C     -717.428    -682.264    -630.219
  O     -718.664    -681.527    -630.301
  C     -716.755    -682.337    -631.573
  O     -717.660    -682.625    -632.607
  C     -716.124    -680.914    -631.648
  N     -715.032    -680.841    -632.620
  C     -715.298    -680.264    -633.858
  O     -716.416    -679.846    -634.192
  N     -714.243    -680.208    -634.726
  C     -712.977    -680.728    -634.515
  O     -712.085    -680.652    -635.341
  C     -712.778    -681.355    -633.208
  C     -713.785    -681.374    -632.334
  O     -715.250    -684.601    -627.117
  O     -714.717    -685.863    -629.342
  H     -714.840    -683.992    -626.478
  H     -718.110    -683.463    -632.406
  H     -714.405    -679.762    -635.621
  H     -711.808    -681.792    -633.009
  H     -713.654    -681.854    -631.354
  H     -716.897    -680.181    -631.904
  H     -715.973    -683.107    -631.541
  H     -717.597    -683.250    -629.745
  H     -716.991    -680.686    -628.745
  H     -714.720    -681.550    -628.096
  H     -716.034    -682.634    -627.621
  P     -719.981    -682.185    -629.643
  C     -721.514    -680.099    -630.011
  O     -721.242    -681.461    -630.295
  O     -719.926    -681.564    -628.165
  O     -719.995    -683.678    -629.633
  H     -719.766    -680.595    -628.176
  H     -722.200    -679.705    -630.798
  H     -720.596    -679.497    -630.030
  H     -722.005    -680.003    -629.041
  H     -711.384    -685.167    -626.944
  H     -712.428    -686.391    -627.627
  H     -712.965    -685.451    -626.255

 3  4  5  6  7  8  9  10  11  12  13  24  28  29  30  31  32 0
 6-311+G(2d,p)
 ****
 33  34 0
 6-311+G(2d,p)
 ****
 1  2  14  15  16  17  18  19  20  21  22  23  25  26  27 0
 3-21G
 ****
 35  36  37  38  39  40  41  42  43  44  45 0
 3-21G
 ****


