%nproc=1
%NoSave
%Mem=1900MB
#P OB98/GEN NMR

erre ene a

0 1
  C      -72.452     -29.706       0.724
  O      -72.175     -31.010       1.217
  P      -72.919     -32.246       0.509
  C      -75.418     -32.816       0.089
  O      -74.477     -32.060       0.843
  C      -76.827     -32.622       0.640
  O      -76.989     -33.362       1.867
  C      -77.180     -31.181       0.981
  O      -77.581     -30.442      -0.161
  C      -78.357     -31.387       1.920
  O      -79.547     -31.663       1.159
  C      -77.928     -32.634       2.702
  N      -78.775     -31.762       7.669
  C      -79.618     -31.971       6.636
  N      -79.315     -32.185       5.339
  C      -77.986     -32.130       5.145
  C      -77.008     -31.887       6.095
  C      -77.444     -31.707       7.417
  N      -76.582     -31.522       8.474
  N      -75.758     -31.904       5.518
  C      -75.973     -32.162       4.246
  N      -77.304     -32.317       3.972
  O      -72.493     -33.492       1.420
  O      -72.573     -32.453      -0.925
  H      -80.295     -31.638       1.784
  H      -72.568     -34.320       0.909
  H      -80.676     -31.978       6.886
  H      -75.202     -32.255       3.493
  H      -78.769     -33.306       2.906
  H      -78.568     -30.507       2.536
  H      -76.361     -30.688       1.522
  H      -77.536     -33.027      -0.094
  H      -75.155     -33.876       0.150
  H      -76.957     -31.586       9.407
  H      -75.593     -31.683       8.314
  H      -75.372     -32.503      -0.959
  P      -76.919     -28.991      -0.353
  C      -76.727     -26.902       1.180
  O      -77.330     -28.162       0.954
  O      -77.802     -28.343      -1.519
  O      -75.466     -29.023      -0.690
  H      -77.289     -27.663      -1.998
  H      -77.327     -26.353       1.910
  H      -76.678     -26.316       0.258
  H      -75.720     -27.041       1.583
  H      -71.892     -28.987       1.284
  H      -73.497     -29.501       0.825
  H      -72.175     -29.649      -0.308

 3  4  5  6  7  8  9  10  11  12  22  25  29  30  31  32 0
 6-311+G(2d,p)
 ****
 33  36  37 0
 6-311+G(2d,p)
 ****
 1  2  13  14  15  16  17  18  19  20  21  23  24  26 0
 3-21G
 ****
 27  28  34  35  38  39  40  41  42  43  44  45  46  47  48 0
 3-21G
 ****


