%nproc=1
%NoSave
%Mem=1900MB
#P OB98/GEN NMR

erre ene a

0 1
  C      137.846    -663.880    -400.547
  O      138.443    -665.072    -401.032
  P      140.036    -665.199    -401.186
  C      141.605    -667.197    -401.663
  O      140.328    -666.777    -401.203
  C      141.912    -668.596    -401.126
  O      141.740    -668.606    -399.695
  C      140.999    -669.701    -401.667
  O      141.364    -670.060    -402.991
  C      141.204    -670.780    -400.612
  O      142.432    -671.484    -400.849
  C      141.320    -669.949    -399.313
  N      140.082    -669.912    -398.548
  C      139.698    -671.106    -397.930
  O      140.391    -672.124    -398.021
  N      138.548    -671.115    -397.179
  C      137.834    -670.036    -397.069
  N      136.740    -670.081    -396.261
  C      138.171    -668.771    -397.759
  C      139.300    -668.779    -398.464
  O      140.826    -664.428    -400.181
  O      140.328    -664.783    -402.699
  H      142.370    -671.872    -401.744
  H      140.471    -663.810    -402.827
  H      137.534    -667.909    -397.647
  H      139.630    -667.886    -398.978
  H      142.121    -670.347    -398.676
  H      140.393    -671.517    -400.580
  H      139.954    -669.367    -401.658
  H      142.964    -668.828    -401.346
  H      136.644    -670.911    -395.670
  H      142.363    -666.496    -401.293
  H      136.308    -669.242    -395.901
  H      141.615    -667.187    -402.756
  P      140.245    -670.753    -403.898
  C      139.030    -670.097    -406.091
  O      140.095    -669.833    -405.204
  O      138.893    -670.506    -403.074
  O      140.486    -672.205    -404.164
  H      138.636    -671.313    -402.585
  H      138.930    -669.253    -406.778
  H      138.084    -670.214    -405.543
  H      139.236    -671.000    -406.673
  H      136.783    -663.999    -400.520
  H      138.098    -663.066    -401.194
  H      138.207    -663.676    -399.561

 3  4  5  6  7  8  9  10  11  12  13  23  27  28  29  30  32 0
 6-311+G(2d,p)
 ****
 34  35 0
 6-311+G(2d,p)
 ****
 1  2  14  15  16  17  18  19  20  21  22  24  25  26 0
 3-21G
 ****
 31  33  36  37  38  39  40  41  42  43  44  45  46 0
 3-21G
 ****


