%nproc=1
%NoSave
%Mem=1900MB
#P OB98/GEN NMR

erre ene a

0 1
  C      482.957    -559.186    -420.901
  O      483.814    -558.555    -419.951
  P      485.395    -558.504    -420.232
  C      485.630    -555.982    -419.698
  O      485.812    -557.023    -420.661
  C      486.969    -555.314    -419.389
  O      487.809    -556.161    -418.567
  C      487.811    -555.035    -420.630
  O      487.323    -554.019    -421.507
  C      489.193    -554.849    -420.059
  O      489.390    -553.520    -419.569
  C      489.184    -555.862    -418.886
  N      489.934    -557.088    -419.191
  C      491.125    -557.258    -418.496
  O      491.576    -556.433    -417.703
  N      491.815    -558.402    -418.776
  C      491.451    -559.362    -419.696
  O      492.126    -560.362    -419.913
  C      490.202    -559.113    -420.416
  C      489.506    -558.008    -420.139
  O      485.925    -559.596    -421.099
  O      486.011    -558.621    -418.753
  H      488.676    -553.326    -418.940
  H      486.789    -559.218    -418.803
  H      492.683    -558.560    -418.280
  H      489.886    -559.842    -421.141
  H      488.581    -557.805    -420.653
  H      489.631    -555.413    -417.990
  H      489.970    -555.029    -420.811
  H      487.827    -555.958    -421.230
  H      486.777    -554.395    -418.817
  H      485.189    -556.398    -418.789
  H      484.903    -555.258    -420.100
  P      486.590    -554.349    -422.903
  C      484.114    -553.997    -422.194
  O      485.120    -554.907    -422.572
  O      487.375    -555.064    -423.946
  O      486.262    -552.858    -423.434
  H      486.307    -552.881    -424.410
  H      483.185    -554.547    -421.995
  H      483.923    -553.280    -422.987
  H      484.411    -553.484    -421.276
  H      481.944    -559.130    -420.560
  H      483.241    -560.212    -421.011
  H      483.043    -558.689    -421.845

 3  4  5  6  7  8  9  10  11  12  13  23  28  29  30  31  32 0
 6-311+G(2d,p)
 ****
 33  34 0
 6-311+G(2d,p)
 ****
 1  2  14  15  16  17  18  19  20  21  22  24  25  26  27 0
 3-21G
 ****
 35  36  37  38  39  40  41  42  43  44  45 0
 3-21G
 ****


