%nproc=1
%NoSave
%Mem=1900MB
#P OB98/GEN NMR

erre ene a

0 1
  C      410.319    -862.013    -436.656
  O      409.201    -862.272    -435.840
  H      411.047    -861.437    -436.077
  H      410.025    -861.430    -437.533
  H      410.795    -862.945    -436.986
  P      408.131    -863.365    -436.324
  C      408.155    -864.330    -433.928
  O      408.234    -864.605    -435.314
  C      407.754    -865.581    -433.136
  O      406.381    -865.917    -433.463
  C      408.618    -866.789    -433.521
  O      408.730    -867.722    -432.450
  C      407.828    -867.417    -434.657
  O      408.125    -868.800    -434.845
  C      406.395    -867.156    -434.193
  N      401.572    -867.848    -435.735
  C      402.169    -868.238    -434.556
  N      401.386    -868.889    -433.667
  N      403.434    -868.020    -434.285
  C      404.111    -867.422    -435.291
  C      403.640    -867.011    -436.518
  C      402.228    -867.215    -436.794
  O      401.651    -866.925    -437.825
  N      404.627    -866.459    -437.289
  C      405.709    -866.528    -436.529
  N      405.442    -867.084    -435.300
  O      408.770    -863.951    -437.672
  O      406.735    -862.852    -436.551
  H      407.710    -869.302    -434.113
  H      408.074    -864.353    -438.234
  H      400.579    -868.010    -435.874
  H      406.696    -866.178    -436.821
  H      406.041    -867.950    -433.519
  H      408.078    -866.905    -435.582
  H      400.473    -869.239    -433.921
  H      409.608    -866.499    -433.865
  H      401.878    -869.447    -432.950
  H      407.778    -865.366    -432.062
  H      407.411    -863.537    -433.805
  H      409.101    -863.925    -433.563
  P      410.198    -868.141    -431.941
  C      410.290    -866.266    -430.076
  O      410.881    -866.923    -431.187
  O      411.049    -868.260    -433.308
  O      410.250    -869.405    -431.149
  H      411.336    -869.180    -433.451
  H      410.936    -865.481    -429.741
  H      410.142    -866.969    -429.283
  H      409.347    -865.852    -430.367

 6  7  8  9  10  11  12  13  14  15  26  29  33  34 0
 6-311+G(2d,p)
 ****
 36  38  39  40  41 0
 6-311+G(2d,p)
 ****
 1  2  3  4  5  16  17  18  19  20  21  22  23  24  25 0
 3-21G
 ****
 27  28  30  31  32  35  37  42  43  44  45  46  47 0
 3-21G
 ****
 48  49 0
 3-21G
 ****


