%nproc=1
%NoSave
%Mem=1900MB
#P OB98/GEN NMR

erre ene a

0 1
  C     -354.244     390.628    -183.205
  O     -354.645     391.913    -183.704
  P     -353.503     392.991    -184.020
  C     -352.492     394.144    -186.124
  O     -353.454     393.239    -185.601
  C     -352.796     394.473    -187.589
  O     -353.055     393.284    -188.364
  C     -354.028     395.350    -187.778
  O     -353.725     396.721    -187.568
  C     -354.351     395.093    -189.238
  O     -353.484     395.888    -190.077
  C     -354.017     393.606    -189.390
  N     -358.199     391.756    -191.701
  C     -357.268     392.649    -192.099
  N     -356.195     393.104    -191.426
  C     -356.121     392.532    -190.213
  C     -356.996     391.605    -189.661
  C     -358.081     391.216    -190.462
  N     -359.026     390.302    -190.050
  N     -356.603     391.251    -188.391
  C     -355.494     391.936    -188.181
  N     -355.170     392.730    -189.247
  O     -352.152     392.174    -183.738
  O     -353.585     394.220    -183.182
  H     -353.591     396.820    -189.799
  H     -351.475     392.773    -183.373
  H     -357.406     393.051    -193.104
  H     -354.896     391.890    -187.277
  H     -353.555     393.377    -190.360
  H     -355.378     395.365    -189.497
  H     -354.857     395.006    -187.139
  H     -351.916     394.976    -188.013
  H     -351.491     393.718    -186.033
  H     -359.764     390.054    -190.693
  H     -358.928     389.877    -189.139
  H     -352.490     395.057    -185.513
  P     -354.628     397.522    -186.508
  C     -355.387     396.742    -184.144
  O     -354.334     396.830    -185.087
  O     -356.111     397.050    -186.874
  O     -354.474     399.001    -186.561
  H     -356.750     397.761    -186.661
  H     -355.121     395.999    -183.393
  H     -356.324     396.441    -184.624
  H     -355.522     397.712    -183.652
  H     -355.111     390.022    -183.043
  H     -353.718     390.752    -182.282
  H     -353.604     390.152    -183.919

 3  4  5  6  7  8  9  10  11  12  22  25  29  30  31  32 0
 6-311+G(2d,p)
 ****
 33  36  37 0
 6-311+G(2d,p)
 ****
 1  2  13  14  15  16  17  18  19  20  21  23  24  26 0
 3-21G
 ****
 27  28  34  35  38  39  40  41  42  43  44  45  46  47  48 0
 3-21G
 ****


