%nproc=1
%NoSave
%Mem=1900MB
#P OB98/GEN NMR

erre ene a

0 1
  C       71.992     180.659     192.714
  O       72.831     179.574     193.063
  P       72.170     178.110     193.090
  C       72.936     177.150     190.794
  O       73.109     177.160     192.206
  C       74.230     176.716     190.109
  O       75.225     177.751     190.230
  C       74.870     175.467     190.699
  O       74.176     174.297     190.296
  C       76.286     175.591     190.145
  O       76.319     175.160     188.774
  C       76.528     177.107     190.228
  N       81.151     177.445     192.406
  C       80.750     176.976     191.202
  N       79.501     176.898     190.703
  C       78.610     177.379     191.584
  C       78.863     177.869     192.853
  C       80.205     177.897     193.263
  N       80.605     178.372     194.494
  N       77.692     178.250     193.476
  C       76.748     178.005     192.590
  N       77.254     177.492     191.427
  O       70.864     178.285     192.187
  O       71.842     177.594     194.457
  H       75.880     175.853     188.242
  H       70.134     177.725     192.516
  H       81.544     176.614     190.553
  H       75.693     178.185     192.743
  H       77.087     177.491     189.367
  H       77.017     174.991     190.695
  H       74.890     175.526     191.794
  H       74.017     176.567     189.043
  H       72.674     178.156     190.451
  H       81.565     178.218     194.763
  H       79.890     178.575     195.180
  H       72.114     176.474     190.542
  P       74.118     173.079     191.343
  C       72.104     174.066     192.597
  O       72.571     173.015     191.768
  O       74.808     173.727     192.630
  O       74.712     171.804     190.857
  H       74.442     174.602     192.841
  H       71.035     173.930     192.765
  H       72.270     175.033     192.110
  H       72.621     174.039     193.561
  H       72.557     181.568     192.735
  H       71.184     180.724     193.413
  H       71.601     180.505     191.730

 3  4  5  6  7  8  9  10  11  12  22  25  29  30  31  32 0
 6-311+G(2d,p)
 ****
 33  36  37 0
 6-311+G(2d,p)
 ****
 1  2  13  14  15  16  17  18  19  20  21  23  24  26 0
 3-21G
 ****
 27  28  34  35  38  39  40  41  42  43  44  45  46  47  48 0
 3-21G
 ****


