%nproc=1
%NoSave
%Mem=1900MB
#P OB98/GEN NMR

erre ene a

0 1
  C      439.050    1090.679    -401.061
  O      438.685    1090.522    -399.702
  H      439.426    1089.726    -401.433
  H      439.841    1091.438    -401.147
  H      438.185    1090.976    -401.656
  P      437.933    1091.761    -399.009
  C      435.616    1090.521    -398.790
  O      436.372    1091.578    -399.365
  C      434.456    1090.126    -399.708
  O      434.980    1089.904    -401.048
  C      433.725    1088.864    -399.263
  O      432.335    1089.016    -399.572
  C      434.322    1087.788    -400.159
  O      433.460    1086.673    -400.292
  C      434.575    1088.567    -401.457
  N      435.581    1087.948    -402.305
  C      435.154    1086.890    -403.110
  O      433.996    1086.494    -403.070
  N      436.081    1086.240    -403.901
  C      437.320    1086.589    -403.864
  N      438.181    1085.903    -404.652
  C      437.823    1087.680    -402.991
  C      436.911    1088.317    -402.267
  O      438.394    1092.990    -399.929
  O      438.235    1091.933    -397.561
  H      433.784    1086.103    -401.030
  H      438.357    1092.789    -400.879
  H      438.877    1087.936    -402.989
  H      437.193    1089.137    -401.618
  H      433.645    1088.678    -402.031
  H      435.269    1087.425    -399.738
  H      433.852    1088.653    -398.202
  H      433.766    1090.981    -399.771
  H      437.799    1085.135    -405.205
  H      435.224    1090.821    -397.810
  H      439.182    1086.049    -404.657
  H      436.281    1089.673    -398.641
  P      431.341    1089.517    -398.426
  C      431.348    1091.955    -399.293
  O      431.535    1091.091    -398.191
  O      431.274    1088.682    -397.187
  O      429.903    1089.488    -399.184
  H      429.244    1089.140    -398.551
  H      431.510    1092.967    -398.985
  H      430.349    1091.851    -399.663
  H      432.043    1091.702    -400.066

 6  7  8  9  10  11  12  13  14  15  16  26  30  31  32  33  35 0
 6-311+G(2d,p)
 ****
 37  38 0
 6-311+G(2d,p)
 ****
 1  2  3  4  5  17  18  19  20  21  22  23  24  25 0
 3-21G
 ****
 27  28  29  34  36  39  40  41  42  43  44  45  46 0
 3-21G
 ****


