%nproc=1
%NoSave
%Mem=1900MB
#P OB98/GEN NMR

erre ene a

0 1
  C     -899.137    -397.531      27.250
  O     -899.197    -398.040      25.906
  P     -897.967    -398.973      25.451
  C     -896.657    -397.400      23.864
  O     -896.707    -398.026      25.136
  C     -895.667    -396.238      23.825
  O     -894.293    -396.745      23.888
  C     -895.747    -395.378      22.559
  O     -895.447    -394.026      22.941
  C     -894.631    -395.905      21.694
  O     -894.250    -394.973      20.685
  C     -893.567    -396.160      22.771
  N     -889.371    -396.435      19.956
  C     -890.300    -395.396      20.106
  N     -890.034    -394.273      19.431
  N     -891.378    -395.485      20.835
  C     -891.493    -396.677      21.482
  C     -890.654    -397.763      21.441
  C     -889.474    -397.668      20.601
  O     -888.627    -398.550      20.442
  N     -891.097    -398.789      22.259
  C     -892.248    -398.332      22.742
  N     -892.500    -397.041      22.344
  O     -898.427    -399.512      24.013
  O     -897.687    -400.100      26.398
  H     -895.034    -394.819      20.113
  H     -898.777    -400.418      24.088
  H     -888.577    -396.310      19.371
  H     -892.894    -398.855      23.399
  H     -893.095    -395.221      23.115
  H     -894.930    -396.850      21.217
  H     -889.187    -394.121      18.884
  H     -896.727    -395.406      22.059
  H     -890.656    -393.474      19.554
  H     -895.827    -395.620      24.718
  H     -897.657    -397.013      23.595
  H     -896.427    -398.155      23.103
  P     -896.667    -393.000      23.162
  C     -896.897    -391.562      20.995
  O     -897.287    -392.727      21.708
  O     -895.927    -391.616      23.497
  O     -897.627    -393.386      24.232
  H     -896.417    -391.148      24.186
  H     -897.017    -391.774      19.924
  H     -895.837    -391.324      21.202
  H     -897.537    -390.738      21.289
  H     -900.000    -396.928      27.442
  H     -898.254    -396.938      27.368
  H     -899.112    -398.348      27.940

 3  4  5  6  7  8  9  10  11  12  23  26  30  31 0
 6-311+G(2d,p)
 ****
 33  35  36  37  38 0
 6-311+G(2d,p)
 ****
 1  2  13  14  15  16  17  18  19  20  21  22  24  25 0
 3-21G
 ****
 27  28  29  32  34  39  40  41  42  43  44  45  46  47  48  49 0
 3-21G
 ****


