%nproc=1
%NoSave
%Mem=1900MB
#P OB98/GEN NMR

erre ene a

0 1
  C      119.763     563.894     -53.158
  O      118.536     564.433     -53.609
  H      119.554     563.033     -52.520
  H      120.310     564.641     -52.574
  H      120.367     563.568     -54.008
  P      118.629     565.702     -54.586
  C      118.119     564.106     -56.561
  O      119.003     565.075     -56.014
  C      118.082     564.212     -58.083
  O      117.573     565.495     -58.490
  C      119.447     564.081     -58.752
  O      119.824     562.719     -58.871
  C      119.161     564.707     -60.107
  O      118.488     563.752     -60.953
  C      118.200     565.857     -59.752
  N      120.195     569.889     -62.221
  C      119.808     568.674     -62.659
  N      119.328     567.635     -61.938
  C      119.259     567.949     -60.634
  C      119.622     569.152     -60.042
  C      120.098     570.159     -60.897
  N      120.485     571.404     -60.448
  N      119.416     569.106     -58.679
  C      118.892     567.913     -58.458
  N      118.811     567.165     -59.605
  O      119.484     566.824     -54.110
  O      117.076     566.060     -54.770
  H      118.877     562.877     -60.774
  H      116.543     565.247     -54.831
  H      119.893     568.507     -63.728
  H      118.543     567.558     -57.499
  H      117.404     565.965     -60.494
  H      120.073     565.005     -60.628
  H      120.205     564.675     -58.236
  H      117.387     563.450     -58.457
  H      117.109     564.241     -56.155
  H      120.971     572.000     -61.098
  H      120.527     571.555     -59.452
  H      118.479     563.121     -56.258
  P      121.353     562.310     -59.119
  C      121.730     561.812     -56.626
  O      122.132     562.595     -57.742
  O      121.983     562.923     -60.321
  O      121.338     560.714     -59.202
  H      121.966     560.406     -59.879
  H      122.312     562.085     -55.771
  H      121.882     560.776     -56.844
  H      120.694     561.986     -56.423

 6  7  8  9  10  11  12  13  14  15  25  28  32  33  34  35 0
 6-311+G(2d,p)
 ****
 36  39  40 0
 6-311+G(2d,p)
 ****
 1  2  3  4  5  16  17  18  19  20  21  22  23  24 0
 3-21G
 ****
 26  27  29  30  31  37  38  41  42  43  44  45  46  47 0
 3-21G
 ****
 48 0
 3-21G
 ****


