%nproc=1
%NoSave
%Mem=1900MB
#P OB98/GEN NMR

erre ene a

0 1
  C     -344.880    -210.241    -284.201
  O     -345.992    -209.921    -283.390
  H     -344.013    -210.402    -283.552
  H     -344.657    -209.411    -284.874
  H     -345.063    -211.152    -284.772
  P     -347.431    -209.770    -284.076
  C     -347.951    -207.459    -283.051
  O     -348.319    -208.829    -283.122
  C     -348.964    -206.667    -282.218
  O     -350.267    -206.766    -282.848
  C     -349.100    -207.169    -280.778
  O     -349.295    -206.054    -279.908
  C     -350.358    -208.015    -280.819
  O     -350.997    -208.098    -279.546
  C     -351.191    -207.289    -281.872
  N     -355.303    -210.117    -281.084
  C     -354.637    -209.263    -280.234
  N     -355.124    -209.157    -278.977
  N     -353.582    -208.571    -280.577
  C     -353.218    -208.759    -281.874
  C     -353.800    -209.577    -282.817
  C     -354.954    -210.351    -282.412
  O     -355.578    -211.135    -283.118
  N     -353.131    -209.508    -284.011
  C     -352.147    -208.654    -283.793
  N     -352.151    -208.183    -282.506
  O     -348.087    -211.062    -284.457
  O     -347.169    -208.846    -285.354
  H     -351.045    -207.184    -279.189
  H     -347.184    -209.372    -286.177
  H     -356.107    -210.633    -280.765
  H     -351.413    -208.347    -284.523
  H     -351.762    -206.451    -281.452
  H     -350.108    -209.035    -281.143
  H     -355.944    -209.639    -278.651
  H     -348.230    -207.741    -280.455
  H     -354.668    -208.509    -278.340
  H     -348.677    -205.610    -282.239
  H     -347.920    -207.058    -284.073
  H     -346.949    -207.375    -282.610
  P     -348.196    -204.886    -279.880
  C     -347.592    -205.243    -277.412
  O     -348.065    -204.324    -278.384
  O     -348.348    -203.835    -280.937
  O     -346.817    -205.690    -280.071
  H     -346.200    -205.140    -280.596
  H     -347.546    -204.761    -276.458
  H     -346.615    -205.583    -277.688
  H     -348.258    -206.079    -277.357

 6  7  8  9  10  11  12  13  14  15  26  29  33  34 0
 6-311+G(2d,p)
 ****
 36  38  39  40  41 0
 6-311+G(2d,p)
 ****
 1  2  3  4  5  16  17  18  19  20  21  22  23  24  25 0
 3-21G
 ****
 27  28  30  31  32  35  37  42  43  44  45  46  47 0
 3-21G
 ****
 48  49 0
 3-21G
 ****


