%nproc=1
%NoSave
%Mem=1900MB
#P OB98/GEN NMR

erre ene a

0 1
  C      345.267     356.024      76.209
  O      345.457     356.695      74.960
  P      345.988     358.211      75.012
  C      348.131     357.386      73.750
  O      347.580     358.115      74.836
  C      349.607     357.747      73.574
  O      349.760     359.170      73.349
  C      350.470     357.435      74.784
  O      350.721     356.041      74.898
  C      351.702     358.283      74.489
  O      352.553     357.612      73.546
  C      351.078     359.532      73.829
  N      351.019     360.679      74.729
  C      352.176     361.454      74.797
  O      353.200     361.190      74.169
  N      352.118     362.535      75.636
  C      351.056     362.892      76.412
  O      351.061     363.881      77.135
  C      349.882     362.010      76.333
  C      349.914     360.961      75.507
  O      345.776     358.561      76.557
  O      345.279     359.110      74.054
  H      345.933     357.800      77.144
  H      353.314     358.209      73.388
  H      352.941     363.115      75.689
  H      349.030     362.250      76.960
  H      349.059     360.296      75.438
  H      351.654     359.824      72.945
  H      352.296     358.488      75.382
  H      349.982     357.799      75.695
  H      349.984     357.218      72.694
  H      347.590     357.626      72.829
  H      348.003     356.316      73.941
  P      349.793     355.216      75.918
  C      348.696     354.072      73.841
  O      348.525     354.722      75.080
  O      349.215     356.399      76.831
  O      350.524     354.158      76.671
  H      348.929     357.170      76.320
  H      347.787     353.520      73.601
  H      349.536     353.370      73.871
  H      348.869     354.820      73.057
  H      344.914     355.030      76.030
  H      344.548     356.558      76.795
  H      346.197     355.982      76.737

 3  4  5  6  7  8  9  10  11  12  13  24  28  29  30  31  32 0
 6-311+G(2d,p)
 ****
 33  34 0
 6-311+G(2d,p)
 ****
 1  2  14  15  16  17  18  19  20  21  22  23  25  26  27 0
 3-21G
 ****
 35  36  37  38  39  40  41  42  43  44  45 0
 3-21G
 ****


