%nproc=1
%NoSave
%Mem=1900MB
#P OB98/GEN NMR

erre ene a

0 1
  C      -28.287    -532.994     366.078
  O      -28.423    -531.935     365.156
  H      -28.895    -532.773     366.958
  H      -27.239    -533.072     366.388
  H      -28.617    -533.943     365.649
  P      -28.009    -532.185     363.631
  C      -25.953    -531.566     362.200
  O      -26.433    -531.895     363.495
  C      -24.484    -531.962     362.016
  O      -23.654    -531.211     362.932
  C      -24.239    -533.434     362.330
  O      -24.495    -534.332     361.267
  C      -22.749    -533.431     362.695
  O      -21.933    -533.537     361.517
  C      -22.568    -532.064     363.353
  N      -20.284    -533.965     367.509
  C      -20.023    -534.231     366.180
  N      -19.076    -535.162     365.925
  N      -20.655    -533.645     365.192
  C      -21.638    -532.804     365.598
  C      -21.995    -532.472     366.892
  C      -21.253    -533.089     367.972
  O      -21.451    -532.890     369.170
  N      -23.042    -531.590     366.907
  C      -23.368    -531.438     365.639
  N      -22.523    -532.135     364.803
  O      -28.655    -530.937     362.854
  O      -28.474    -533.484     363.043
  H      -21.025    -533.258     361.745
  H      -28.829    -531.177     361.928
  H      -19.745    -534.423     368.229
  H      -24.179    -530.818     365.268
  H      -21.634    -531.579     363.026
  H      -22.489    -534.274     363.334
  H      -18.648    -535.722     366.650
  H      -24.805    -533.738     363.215
  H      -19.048    -535.573     364.992
  H      -24.158    -531.702     361.000
  H      -26.068    -530.488     362.082
  H      -26.572    -532.044     361.430
  P      -24.878    -535.856     361.575
  C      -24.781    -538.052     360.170
  O      -24.301    -536.735     360.365
  O      -26.464    -535.877     361.336
  O      -24.516    -536.331     362.939
  H      -26.929    -535.779     362.190
  H      -24.291    -538.489     359.325
  H      -25.836    -538.025     359.996
  H      -24.578    -538.638     361.042

 6  7  8  9  10  11  12  13  14  15  26  29  33  34 0
 6-311+G(2d,p)
 ****
 36  38  39  40  41 0
 6-311+G(2d,p)
 ****
 1  2  3  4  5  16  17  18  19  20  21  22  23  24  25 0
 3-21G
 ****
 27  28  30  31  32  35  37  42  43  44  45  46  47 0
 3-21G
 ****
 48  49 0
 3-21G
 ****


