%nproc=1
%NoSave
%Mem=1900MB
#P OB98/GEN NMR

erre ene a

0 1
  C       52.507    1276.162     598.871
  O       52.139    1277.438     598.390
  H       53.224    1276.298     599.689
  H       52.981    1275.574     598.088
  H       51.630    1275.636     599.262
  P       51.239    1277.539     597.064
  C       49.675    1279.164     598.282
  O       49.765    1277.927     597.594
  C       48.327    1279.330     598.975
  O       47.294    1279.571     597.987
  C       47.897    1278.100     599.794
  O       47.426    1278.521     601.080
  C       46.755    1277.505     598.980
  O       45.874    1276.723     599.785
  C       46.157    1278.769     598.351
  N       45.306    1278.482     597.200
  C       44.129    1277.760     597.462
  O       43.879    1277.370     598.603
  N       43.298    1277.466     596.417
  C       43.626    1277.811     595.215
  N       42.756    1277.478     594.213
  C       44.873    1278.529     594.885
  C       45.656    1278.833     595.924
  O       51.293    1276.333     596.181
  O       51.726    1278.883     596.348
  H       45.167    1276.363     599.204
  H       51.468    1278.859     595.390
  H       45.103    1278.783     593.864
  H       46.591    1279.368     595.776
  H       45.562    1279.327     599.086
  H       47.168    1276.860     598.194
  H       48.695    1277.379     599.939
  H       48.367    1280.225     599.604
  H       41.910    1276.990     594.479
  H       49.833    1279.979     597.565
  H       42.909    1277.694     593.243
  H       50.470    1279.194     599.042
  P       48.279    1278.019     602.345
  C       49.778    1280.064     602.889
  O       49.698    1278.769     602.309
  O       48.638    1276.505     601.961
  O       47.540    1278.105     603.633
  H       48.039    1275.894     602.429
  H       50.776    1280.437     602.792
  H       49.518    1280.007     603.925
  H       49.101    1280.722     602.386

 6  7  8  9  10  11  12  13  14  15  16  26  30  31  32  33  35 0
 6-311+G(2d,p)
 ****
 37  38 0
 6-311+G(2d,p)
 ****
 1  2  3  4  5  17  18  19  20  21  22  23  24  25 0
 3-21G
 ****
 27  28  29  34  36  39  40  41  42  43  44  45  46 0
 3-21G
 ****


