%nproc=1
%NoSave
%Mem=1900MB
#P OB98/GEN NMR

erre ene a

0 1
  C     -301.564      -8.760     460.180
  O     -302.752      -9.532     459.938
  P     -302.739     -10.896     459.099
  C     -302.266     -11.632     456.666
  O     -302.629     -10.559     457.534
  C     -302.517     -11.276     455.192
  O     -303.930     -11.199     454.920
  C     -301.942      -9.933     454.757
  O     -300.539     -10.008     454.575
  C     -302.740      -9.678     453.478
  O     -302.166     -10.378     452.362
  C     -304.117     -10.259     453.840
  N     -305.091      -9.232     454.191
  C     -305.902      -8.768     453.156
  O     -305.755      -9.180     452.007
  N     -306.867      -7.821     453.446
  C     -306.947      -7.339     454.643
  N     -307.923      -6.413     454.878
  C     -306.048      -7.734     455.746
  C     -305.149      -8.680     455.450
  O     -303.865     -11.827     459.440
  O     -301.332     -11.583     459.434
  H     -301.190     -10.265     452.439
  H     -301.432     -12.554     459.391
  H     -306.134      -7.285     456.724
  H     -304.461      -9.041     456.203
  H     -304.522     -10.854     452.999
  H     -302.778      -8.622     453.215
  H     -302.194      -9.162     455.500
  H     -302.094     -12.087     454.579
  H     -308.528      -6.168     454.106
  H     -302.869     -12.507     456.931
  H     -308.072      -5.971     455.771
  H     -301.214     -11.875     456.826
  P     -299.564      -9.836     455.838
  C     -298.425      -7.887     457.068
  O     -299.392      -8.262     456.099
  O     -298.287     -10.616     455.784
  O     -300.470     -10.294     457.086
  H     -299.893     -10.700     457.766
  H     -298.123      -6.852     456.878
  H     -297.541      -8.531     457.022
  H     -298.870      -7.947     458.071
  H     -301.812      -7.895     460.759
  H     -301.141      -8.455     459.246
  H     -300.854      -9.356     460.715

 3  4  5  6  7  8  9  10  11  12  13  23  27  28  29  30  32 0
 6-311+G(2d,p)
 ****
 34  35 0
 6-311+G(2d,p)
 ****
 1  2  14  15  16  17  18  19  20  21  22  24  25  26 0
 3-21G
 ****
 31  33  36  37  38  39  40  41  42  43  44  45  46 0
 3-21G
 ****


