%nproc=1
%NoSave
%Mem=1900MB
#P OB98/GEN NMR

erre ene a

0 1
  C      332.303     237.155     -22.218
  O      331.261     237.322     -21.277
  H      332.456     238.101     -22.745
  H      332.027     236.390     -22.946
  H      333.235     236.875     -21.718
  P      331.021     236.134     -20.228
  C      332.158     237.890     -18.683
  O      331.840     236.525     -18.902
  C      331.539     238.370     -17.372
  O      330.088     238.321     -17.501
  C      331.918     237.516     -16.153
  O      332.041     238.381     -15.019
  C      330.705     236.624     -15.967
  O      330.561     236.116     -14.647
  C      329.578     237.579     -16.374
  N      328.344     236.878     -16.725
  C      327.648     236.259     -15.691
  O      327.945     236.331     -14.500
  N      326.552     235.526     -16.074
  C      326.121     235.335     -17.353
  O      325.145     234.649     -17.634
  C      326.903     236.006     -18.400
  C      327.964     236.731     -18.043
  O      331.873     234.930     -20.849
  O      329.596     235.766     -19.990
  H      331.323     234.404     -21.458
  H      330.265     236.856     -14.080
  H      326.038     235.071     -15.338
  H      326.591     235.868     -19.426
  H      328.576     237.221     -18.792
  H      329.380     238.297     -15.571
  H      330.760     235.771     -16.654
  H      332.840     236.939     -16.279
  H      331.812     239.418     -17.215
  H      331.761     238.491     -19.506
  H      333.249     238.006     -18.655
  P      333.440     238.364     -14.230
  C      333.421     240.967     -14.522
  O      334.154     239.754     -14.591
  O      334.253     237.269     -15.063
  O      333.285     238.070     -12.774
  H      334.047     237.285     -16.014
  H      334.056     241.784     -14.795
  H      333.064     241.112     -13.524
  H      332.590     240.921     -15.195

 6  7  8  9  10  11  12  13  14  15  16  27  31  32  33  34  35 0
 6-311+G(2d,p)
 ****
 36  37 0
 6-311+G(2d,p)
 ****
 1  2  3  4  5  17  18  19  20  21  22  23  24  25 0
 3-21G
 ****
 26  28  29  30  38  39  40  41  42  43  44  45 0
 3-21G
 ****


