%nproc=1
%NoSave
%Mem=1900MB
#P OB98/GEN NMR

erre ene a

0 1
  C     -160.352     131.027      74.616
  O     -159.584     131.859      75.465
  P     -160.164     132.170      76.927
  C     -159.257     133.302      79.092
  O     -159.009     132.918      77.748
  C     -158.204     134.320      79.540
  O     -156.912     133.687      79.663
  C     -158.009     135.465      78.556
  O     -159.036     136.435      78.679
  C     -156.635     135.983      78.957
  O     -156.727     136.884      80.074
  C     -155.909     134.684      79.363
  N     -154.972     134.223      78.345
  C     -153.785     134.942      78.243
  O     -153.534     135.921      78.943
  N     -152.910     134.521      77.279
  C     -153.124     133.508      76.388
  O     -152.325     133.212      75.509
  C     -154.411     132.802      76.525
  C     -155.262     133.192      77.476
  O     -160.252     130.730      77.618
  O     -161.481     132.871      76.934
  H     -155.814     137.158      80.285
  H     -161.034     130.690      78.205
  H     -152.033     135.009      77.206
  H     -154.614     131.992      75.836
  H     -156.220     132.693      77.583
  H     -155.355     134.839      80.296
  H     -156.148     136.531      78.146
  H     -157.960     135.075      77.532
  H     -158.492     134.705      80.526
  H     -159.212     132.418      79.736
  H     -160.261     133.731      79.166
  P     -159.386     137.294      77.367
  C     -161.538     138.566      76.605
  O     -160.933     137.686      77.526
  O     -159.357     136.149      76.246
  O     -158.436     138.419      77.136
  H     -159.649     135.291      76.592
  H     -161.144     138.424      75.596
  H     -161.366     139.596      76.923
  H     -162.614     138.375      76.593
  H     -159.846     130.908      73.681
  H     -161.309     131.475      74.449
  H     -160.481     130.070      75.076

 3  4  5  6  7  8  9  10  11  12  13  23  28  29  30  31  32 0
 6-311+G(2d,p)
 ****
 33  34 0
 6-311+G(2d,p)
 ****
 1  2  14  15  16  17  18  19  20  21  22  24  25  26 0
 3-21G
 ****
 27  35  36  37  38  39  40  41  42  43  44  45 0
 3-21G
 ****


