%nproc=1
%NoSave
%Mem=1900MB
#P OB98/GEN NMR

erre ene a

0 1
  C     -900.169    -891.850    -611.860
  O     -899.699    -893.090    -612.366
  P     -900.626    -893.930    -613.378
  C     -898.880    -893.740    -615.292
  O     -899.718    -894.600    -614.525
  C     -897.661    -894.510    -615.785
  O     -896.770    -894.890    -614.680
  C     -898.007    -895.820    -616.473
  O     -898.657    -895.730    -617.714
  C     -896.692    -896.590    -616.416
  O     -895.807    -896.200    -617.484
  C     -896.102    -896.130    -615.055
  N     -896.254    -897.140    -614.012
  C     -895.255    -898.120    -613.983
  O     -894.368    -898.190    -614.813
  N     -895.405    -899.070    -612.981
  C     -896.393    -899.130    -612.059
  O     -896.464    -900.000    -611.206
  C     -897.426    -898.060    -612.140
  C     -897.287    -897.130    -613.092
  O     -901.836    -893.240    -613.878
  O     -901.028    -895.210    -612.481
  H     -896.031    -895.280    -617.700
  H     -901.973    -895.410    -612.659
  H     -894.679    -899.790    -612.949
  H     -898.220    -898.090    -611.426
  H     -898.046    -896.340    -613.179
  H     -895.043    -895.880    -615.151
  H     -896.833    -897.680    -616.485
  H     -898.705    -896.360    -615.808
  H     -897.055    -893.860    -616.419
  H     -898.565    -892.890    -614.669
  H     -899.458    -893.330    -616.114
  P     -899.950    -896.560    -618.086
  C     -901.717    -894.710    -618.452
  O     -900.899    -895.670    -619.034
  O     -900.634    -897.340    -617.027
  O     -899.336    -897.630    -619.154
  H     -899.837    -898.470    -619.066
  H     -902.270    -894.190    -619.217
  H     -901.142    -893.950    -617.914
  H     -902.424    -895.200    -617.746
  H     -899.433    -891.429    -611.207
  H     -901.078    -892.007    -611.318
  H     -900.350    -891.179    -612.673

 3  4  5  6  7  8  9  10  11  12  13  23  28  29  30  31  32 0
 6-311+G(2d,p)
 ****
 33  34 0
 6-311+G(2d,p)
 ****
 1  2  14  15  16  17  18  19  20  21  22  24  25  26  27 0
 3-21G
 ****
 35  36  37  38  39  40  41  42  43  44  45 0
 3-21G
 ****


