%nproc=1
%NoSave
%Mem=1900MB
#P OB98/GEN NMR

erre ene a

0 1
  C      -50.776    -327.083    1412.652
  O      -51.608    -328.197    1412.394
  P      -53.128    -328.218    1412.887
  C      -55.326    -329.282    1412.076
  O      -53.933    -329.115    1411.835
  C      -55.953    -330.132    1410.968
  O      -56.072    -329.365    1409.737
  C      -55.142    -331.352    1410.574
  O      -55.017    -332.377    1411.542
  C      -55.791    -331.728    1409.257
  O      -57.007    -332.466    1409.451
  C      -56.094    -330.335    1408.652
  N      -55.167    -329.981    1407.573
  C      -55.395    -330.575    1406.350
  O      -56.342    -331.365    1406.130
  N      -54.505    -330.278    1405.346
  C      -53.398    -329.469    1405.471
  O      -52.605    -329.274    1404.561
  C      -53.193    -328.891    1406.818
  C      -54.068    -329.158    1407.798
  O      -53.736    -326.871    1413.149
  O      -53.083    -329.164    1414.189
  H      -57.481    -332.041    1410.193
  H      -52.782    -330.060    1414.023
  H      -54.662    -330.705    1404.433
  H      -52.329    -328.241    1406.937
  H      -53.937    -328.741    1408.756
  H      -57.124    -330.315    1408.233
  H      -55.125    -332.359    1408.638
  H      -54.128    -331.035    1410.351
  H      -56.974    -330.388    1411.270
  H      -55.809    -328.289    1412.089
  H      -55.482    -329.759    1413.059
  P      -54.090    -333.665    1411.350
  C      -53.157    -335.599    1412.830
  O      -53.908    -334.395    1412.779
  O      -52.851    -333.469    1410.510
  O      -55.084    -334.689    1410.584
  H      -54.553    -335.241    1409.995
  H      -53.186    -335.956    1413.862
  H      -52.114    -335.417    1412.572
  H      -53.600    -336.355    1412.167
  H      -49.803    -327.262    1412.244
  H      -50.698    -326.933    1413.709
  H      -51.198    -326.210    1412.198

 3  4  5  6  7  8  9  10  11  12  13  23  28  29  30  31  32 0
 6-311+G(2d,p)
 ****
 33  34 0
 6-311+G(2d,p)
 ****
 1  2  14  15  16  17  18  19  20  21  22  24  25  26  27 0
 3-21G
 ****
 35  36  37  38  39  40  41  42  43  44  45 0
 3-21G
 ****


