%nproc=1
%NoSave
%Mem=1900MB
#P OB98/GEN NMR

erre ene a

0 1
  C      932.161    -598.667     179.015
  O      932.057    -599.992     178.526
  P      932.965    -600.391     177.258
  C      933.196    -599.372     174.835
  O      932.669    -599.264     176.151
  C      932.109    -599.114     173.798
  O      931.433    -597.857     174.096
  C      932.601    -598.981     172.365
  O      932.906    -600.236     171.794
  C      931.444    -598.243     171.711
  O      930.382    -599.173     171.392
  C      930.989    -597.301     172.852
  N      931.474    -595.925     172.675
  C      931.273    -595.346     171.427
  O      930.730    -595.933     170.499
  N      931.740    -594.069     171.280
  C      932.445    -593.358     172.221
  O      932.879    -592.226     172.017
  C      932.647    -594.021     173.505
  C      932.159    -595.266     173.674
  O      932.189    -601.688     176.737
  O      934.398    -600.604     177.600
  H      931.230    -601.665     176.983
  H      930.201    -599.674     172.208
  H      931.580    -593.618     170.392
  H      933.199    -593.498     174.267
  H      932.316    -595.780     174.616
  H      929.893    -597.275     172.890
  H      931.731    -597.734     170.787
  H      933.496    -598.336     172.350
  H      931.360    -599.915     173.879
  H      933.600    -600.379     174.706
  H      934.022    -598.655     174.722
  P      934.119    -600.273     170.727
  C      934.681    -598.807     168.629
  O      933.711    -599.250     169.561
  O      933.931    -601.715     170.073
  O      935.470    -600.041     171.333
  H      932.991    -601.927     169.906
  H      934.168    -598.427     167.740
  H      935.349    -599.615     168.336
  H      935.268    -597.998     169.078
  H      931.507    -598.544     179.853
  H      931.886    -597.979     178.243
  H      933.169    -598.477     179.319

 3  4  5  6  7  8  9  10  11  12  13  24  28  29  30  31  32 0
 6-311+G(2d,p)
 ****
 33  34 0
 6-311+G(2d,p)
 ****
 1  2  14  15  16  17  18  19  20  21  22  23  25  26  27 0
 3-21G
 ****
 35  36  37  38  39  40  41  42  43  44  45 0
 3-21G
 ****


