%nproc=1
%NoSave
%Mem=1900MB
#P OB98/GEN NMR

erre ene a

0 1
  C     -257.137    -716.346    -485.358
  O     -256.381    -715.274    -485.908
  H     -258.112    -715.950    -485.036
  H     -256.627    -716.778    -484.494
  H     -257.301    -717.114    -486.119
  P     -254.875    -715.616    -486.351
  C     -254.687    -714.252    -488.563
  O     -254.339    -714.344    -487.187
  C     -254.147    -712.932    -489.124
  O     -255.057    -711.858    -488.788
  C     -252.796    -712.520    -488.555
  O     -251.710    -713.216    -489.157
  C     -252.786    -711.032    -488.901
  O     -252.338    -710.788    -490.241
  C     -254.258    -710.643    -488.726
  N     -254.486    -709.906    -487.486
  C     -254.381    -708.510    -487.577
  O     -254.117    -707.931    -488.622
  N     -254.559    -707.812    -486.413
  C     -254.758    -708.357    -485.174
  O     -254.838    -707.684    -484.158
  C     -254.842    -709.840    -485.125
  C     -254.702    -710.529    -486.257
  O     -255.072    -716.741    -487.474
  O     -253.978    -716.062    -485.261
  H     -254.815    -717.610    -487.112
  H     -253.099    -710.979    -490.821
  H     -254.486    -706.803    -486.454
  H     -255.007    -710.309    -484.158
  H     -254.748    -711.623    -486.254
  H     -254.586    -710.017    -489.556
  H     -252.114    -710.486    -488.226
  H     -252.784    -712.642    -487.472
  H     -254.105    -713.011    -490.216
  H     -255.774    -714.259    -488.682
  H     -254.259    -715.100    -489.098
  P     -250.826    -714.177    -488.230
  C     -251.218    -716.149    -489.931
  O     -250.297    -715.342    -489.177
  O     -251.965    -714.843    -487.336
  O     -249.771    -713.423    -487.475
  H     -252.815    -714.881    -487.796
  H     -250.674    -716.872    -490.502
  H     -251.782    -715.524    -490.591
  H     -251.883    -716.652    -489.261

 6  7  8  9  10  11  12  13  14  15  16  27  31  32  33  34  35 0
 6-311+G(2d,p)
 ****
 36  37 0
 6-311+G(2d,p)
 ****
 1  2  3  4  5  17  18  19  20  21  22  23  24  25 0
 3-21G
 ****
 26  28  29  30  38  39  40  41  42  43  44  45 0
 3-21G
 ****


