%nproc=1
%NoSave
%Mem=1900MB
#P OB98/GEN NMR

erre ene a

0 1
  C      149.974     233.467    -297.630
  O      150.359     232.283    -296.923
  P      151.506     231.363    -297.562
  C      153.282     231.596    -295.675
  O      152.375     230.744    -296.364
  C      153.524     231.074    -294.253
  O      152.435     231.420    -293.366
  C      153.656     229.557    -294.170
  O      154.977     229.125    -294.488
  C      153.376     229.317    -292.695
  O      154.563     229.603    -291.923
  C      152.283     230.348    -292.399
  N      148.979     227.146    -290.289
  C      150.269     227.476    -289.914
  N      150.746     226.867    -288.805
  N      151.024     228.324    -290.562
  C      150.412     228.869    -291.638
  C      149.141     228.631    -292.115
  C      148.321     227.675    -291.395
  O      147.179     227.339    -291.688
  N      148.873     229.368    -293.234
  C      149.974     230.076    -293.429
  N      150.940     229.791    -292.493
  O      152.507     232.438    -298.204
  O      151.017     230.387    -298.578
  H      154.762     230.550    -292.067
  H      152.977     232.041    -298.961
  H      148.445     226.484    -289.753
  H      150.112     230.795    -294.220
  H      152.380     230.787    -291.400
  H      153.109     228.276    -292.487
  H      150.199     226.237    -288.228
  H      152.897     229.054    -294.785
  H      151.677     227.115    -288.493
  H      154.443     231.535    -293.872
  H      152.895     232.613    -295.631
  H      154.217     231.653    -296.239
  P      155.207     227.564    -294.770
  C      155.955     227.883    -297.237
  O      156.311     227.482    -295.925
  O      153.851     227.128    -295.491
  O      155.472     226.749    -293.548
  H      153.642     226.199    -295.276
  H      156.863     227.912    -297.843
  H      155.503     228.878    -297.226
  H      155.256     227.163    -297.668
  H      149.205     233.973    -297.085
  H      149.608     233.200    -298.599
  H      150.821     234.112    -297.734

 3  4  5  6  7  8  9  10  11  12  23  26  30  31 0
 6-311+G(2d,p)
 ****
 33  35  36  37  38 0
 6-311+G(2d,p)
 ****
 1  2  13  14  15  16  17  18  19  20  21  22  24  25 0
 3-21G
 ****
 27  28  29  32  34  39  40  41  42  43  44  45  46  47  48  49 0
 3-21G
 ****


