%nproc=1
%NoSave
%Mem=1900MB
#P OB98/GEN NMR

erre ene a

0 1
  C      155.059     702.830     237.675
  O      153.968     701.987     237.335
  P      152.665     701.897     238.279
  C      153.873     700.292     239.906
  O      152.784     700.473     239.016
  C      153.885     698.850     240.407
  O      152.574     698.466     240.847
  C      154.294     697.816     239.357
  O      155.696     697.833     239.136
  C      153.744     696.542     239.980
  O      154.625     696.058     241.002
  C      152.427     697.036     240.617
  N      151.248     696.751     239.808
  C      150.874     695.409     239.721
  O      151.504     694.524     240.296
  N      149.750     695.095     238.979
  C      149.092     696.028     238.375
  N      147.952     695.664     237.719
  C      149.486     697.451     238.407
  C      150.569     697.742     239.132
  O      151.371     702.141     237.589
  O      152.969     702.929     239.467
  H      155.460     695.809     240.567
  H      152.677     703.853     239.276
  H      148.907     698.190     237.871
  H      150.905     698.751     239.224
  H      152.299     696.591     241.614
  H      153.580     695.737     239.257
  H      153.775     698.016     238.411
  H      154.571     698.804     241.278
  H      147.626     694.715     237.868
  H      153.739     700.960     240.763
  H      147.237     696.344     237.486
  H      154.811     700.544     239.400
  P      156.211     698.067     237.636
  C      155.423     695.817     236.597
  O      156.512     696.591     237.046
  O      157.654     698.720     237.840
  O      155.313     698.908     236.803
  H      157.609     699.684     237.694
  H      155.813     694.969     236.018
  H      154.768     696.405     235.947
  H      154.862     695.435     237.451
  H      155.819     702.748     236.927
  H      155.458     702.533     238.622
  H      154.722     703.844     237.732

 3  4  5  6  7  8  9  10  11  12  13  23  27  28  29  30  32 0
 6-311+G(2d,p)
 ****
 34  35 0
 6-311+G(2d,p)
 ****
 1  2  14  15  16  17  18  19  20  21  22  24  25  26 0
 3-21G
 ****
 31  33  36  37  38  39  40  41  42  43  44  45  46 0
 3-21G
 ****


