%nproc=1
%NoSave
%Mem=1900MB
#P OB98/GEN NMR

erre ene a

0 1
  C       43.383     -13.347     -85.963
  O       41.966     -13.565     -85.940
  P       41.300     -15.009     -85.707
  C       40.848     -15.941     -88.069
  O       41.691     -15.978     -86.927
  C       40.333     -17.336     -88.445
  O       41.445     -18.185     -88.869
  C       39.604     -18.073     -87.305
  O       38.510     -18.775     -87.905
  C       40.678     -19.031     -86.811
  O       40.172     -20.112     -86.050
  C       41.307     -19.429     -88.151
  N       42.590     -20.119     -88.061
  C       42.573     -21.516     -87.960
  O       41.517     -22.143     -87.890
  N       43.774     -22.185     -87.920
  C       44.890     -21.526     -87.967
  N       46.041     -22.251     -87.932
  C       44.953     -20.057     -88.054
  C       43.781     -19.426     -88.098
  O       39.830     -14.954     -85.444
  O       42.073     -15.638     -84.454
  H       41.446     -16.164     -83.921
  H       39.629     -20.666     -86.640
  H       45.905     -19.546     -88.098
  H       43.742     -18.345     -88.191
  H       40.598     -20.048     -88.714
  H       41.380     -18.477     -86.179
  H       39.213     -17.405     -86.531
  H       39.671     -17.230     -89.314
  H       45.956     -23.259     -87.883
  H       41.421     -15.540     -88.911
  H       46.963     -21.841     -87.972
  H       40.009     -15.264     -87.873
  P       37.005     -18.338     -87.563
  C       36.668     -19.660     -85.342
  O       36.830     -18.404     -85.970
  O       36.172     -19.627     -88.037
  O       36.496     -17.114     -88.255
  H       35.262     -19.356     -88.259
  H       37.300     -19.691     -84.450
  H       36.945     -20.491     -85.997
  H       35.623     -19.776     -85.041
  H       43.582     -12.309     -86.133
  H       43.820     -13.927     -86.748
  H       43.804     -13.642     -85.025

 3  4  5  6  7  8  9  10  11  12  13  24  27  28  29  30  32 0
 6-311+G(2d,p)
 ****
 34  35 0
 6-311+G(2d,p)
 ****
 1  2  14  15  16  17  18  19  20  21  22  23  25  26 0
 3-21G
 ****
 31  33  36  37  38  39  40  41  42  43  44  45  46 0
 3-21G
 ****


