%nproc=1
%NoSave
%Mem=1900MB
#P OB98/GEN NMR

erre ene a

0 1
  C      -83.796     140.642    -318.694
  O      -83.321     141.229    -319.909
  P      -82.050     142.201    -319.770
  C      -83.187     144.525    -319.576
  O      -82.503     143.477    -318.899
  C      -82.802     145.894    -318.997
  O      -83.074     145.944    -317.565
  C      -81.316     146.247    -319.190
  O      -81.251     147.664    -319.396
  C      -80.727     145.869    -317.835
  O      -79.442     146.435    -317.605
  C      -81.852     146.362    -316.923
  N      -78.932     146.084    -312.741
  C      -78.732     146.672    -313.942
  N      -79.564     146.701    -315.012
  C      -80.696     146.037    -314.736
  C      -81.042     145.388    -313.560
  C      -80.099     145.429    -312.525
  N      -80.283     144.817    -311.303
  N      -82.302     144.800    -313.676
  C      -82.658     145.028    -314.931
  N      -81.765     145.840    -315.578
  O      -81.864     142.790    -321.244
  O      -80.821     141.512    -319.265
  H      -79.100     146.136    -316.737
  H      -81.157     142.308    -321.719
  H      -77.780     147.186    -314.066
  H      -83.547     144.641    -315.409
  H      -81.868     147.455    -316.845
  H      -80.620     144.784    -317.770
  H      -80.848     145.733    -320.034
  H      -83.430     146.659    -319.477
  H      -84.268     144.395    -319.480
  H      -79.542     144.903    -310.620
  H      -81.129     144.308    -311.107
  H      -82.962     144.467    -320.651
  P      -81.441     148.230    -320.895
  C      -78.934     147.787    -321.248
  O      -80.242     147.558    -321.732
  O      -80.891     149.726    -320.705
  O      -82.823     148.150    -321.462
  H      -80.024     149.732    -320.262
  H      -78.232     147.220    -321.859
  H      -78.853     147.464    -320.207
  H      -78.685     148.860    -321.326
  H      -84.639     140.018    -318.905
  H      -84.086     141.415    -318.014
  H      -83.018     140.053    -318.254

 3  4  5  6  7  8  9  10  11  12  22  25  29  30  31  32 0
 6-311+G(2d,p)
 ****
 33  36  37 0
 6-311+G(2d,p)
 ****
 1  2  13  14  15  16  17  18  19  20  21  23  24  26 0
 3-21G
 ****
 27  28  34  35  38  39  40  41  42  43  44  45  46  47  48 0
 3-21G
 ****


