%nproc=1
%NoSave
%Mem=1900MB
#P OB98/GEN NMR

erre ene a

0 1
  C      244.761     549.289     521.456
  O      244.185     549.891     522.626
  P      243.755     551.432     522.677
  C      244.430     551.662     525.156
  O      243.392     551.817     524.187
  C      244.005     552.170     526.539
  O      243.498     553.512     526.459
  C      242.885     551.353     527.190
  O      243.411     550.167     527.760
  C      242.341     552.358     528.204
  O      243.163     552.394     529.383
  C      242.466     553.680     527.431
  N      237.778     555.620     528.189
  C      238.800     555.366     529.037
  N      240.018     554.847     528.762
  C      240.132     554.599     527.449
  C      239.176     554.785     526.458
  C      237.947     555.333     526.870
  N      236.901     555.569     526.006
  N      239.654     554.390     525.222
  C      240.885     553.985     525.458
  N      241.227     554.072     526.787
  O      242.715     551.811     521.678
  O      245.121     552.241     522.412
  H      243.207     551.488     529.744
  H      244.920     553.096     521.993
  H      238.625     555.629     530.073
  H      241.560     553.597     524.705
  H      242.768     554.508     528.092
  H      241.323     552.125     528.529
  H      242.114     551.122     526.466
  H      244.893     552.182     527.185
  H      245.309     552.214     524.812
  H      236.038     555.915     526.391
  H      236.998     555.301     525.034
  H      244.691     550.598     525.217
  P      242.775     548.751     527.367
  C      243.129     547.722     529.705
  O      243.460     547.645     528.314
  O      242.784     548.418     525.919
  O      241.283     548.832     527.943
  H      240.690     548.277     527.384
  H      243.731     548.504     530.171
  H      243.366     546.759     530.164
  H      242.066     547.938     529.842
  H      244.968     548.257     521.651
  H      245.671     549.794     521.206
  H      244.074     549.367     520.640

 3  4  5  6  7  8  9  10  11  12  22  25  29  30  31  32 0
 6-311+G(2d,p)
 ****
 33  36  37 0
 6-311+G(2d,p)
 ****
 1  2  13  14  15  16  17  18  19  20  21  23  24  26 0
 3-21G
 ****
 27  28  34  35  38  39  40  41  42  43  44  45  46  47  48 0
 3-21G
 ****


