%nproc=1
%NoSave
%Mem=1900MB
#P OB98/GEN NMR

erre ene a

0 1
  C      479.177     229.541     207.613
  O      478.849     229.355     208.988
  P      479.532     230.315     210.082
  C      477.187     231.070     210.841
  O      478.490     231.484     210.434
  C      476.681     231.945     211.989
  O      477.588     231.937     213.111
  C      476.525     233.406     211.615
  O      475.380     233.605     210.799
  C      476.466     234.065     212.986
  O      475.143     233.985     213.541
  C      477.435     233.186     213.808
  N      478.728     233.826     214.043
  C      478.869     234.480     215.270
  O      477.928     234.533     216.063
  N      480.075     235.072     215.562
  C      481.041     235.024     214.704
  N      482.213     235.626     215.040
  C      480.925     234.354     213.388
  C      479.748     233.790     213.128
  O      480.917     230.769     209.766
  O      479.503     229.414     211.410
  H      474.865     233.053     213.435
  H      480.265     229.662     211.970
  H      481.763     234.336     212.707
  H      479.577     233.279     212.186
  H      476.998     232.950     214.784
  H      476.732     235.127     212.934
  H      477.422     233.747     211.077
  H      475.713     231.542     212.321
  H      482.261     236.089     215.940
  H      477.216     230.024     211.153
  H      483.039     235.599     214.460
  H      476.518     231.127     209.978
  P      475.266     234.989     210.001
  C      475.963     234.729     207.518
  O      476.377     234.987     208.850
  O      475.828     236.059     211.058
  O      473.884     235.342     209.562
  H      475.354     236.904     210.950
  H      476.752     235.070     206.839
  H      475.039     235.255     207.279
  H      475.823     233.653     207.381
  H      478.643     228.829     207.019
  H      480.229     229.403     207.475
  H      478.905     230.531     207.312

 3  4  5  6  7  8  9  10  11  12  13  23  27  28  29  30  32 0
 6-311+G(2d,p)
 ****
 34  35 0
 6-311+G(2d,p)
 ****
 1  2  14  15  16  17  18  19  20  21  22  24  25  26 0
 3-21G
 ****
 31  33  36  37  38  39  40  41  42  43  44  45  46 0
 3-21G
 ****


