%nproc=1
%NoSave
%Mem=1900MB
#P OB98/GEN NMR

erre ene a

0 1
  C      350.915     279.009      -9.301
  O      350.092     280.162      -9.280
  P      348.519     280.077      -9.604
  C      347.952     279.497      -7.150
  O      347.911     279.088      -8.504
  C      346.692     279.044      -6.411
  O      346.762     279.507      -5.039
  C      345.383     279.572      -7.016
  O      344.392     278.549      -6.843
  C      345.072     280.769      -6.147
  O      343.697     281.129      -6.177
  C      345.568     280.277      -4.782
  N      345.839     281.375      -3.853
  C      344.904     281.610      -2.845
  O      343.879     280.939      -2.759
  N      345.158     282.620      -1.949
  C      346.195     283.373      -2.099
  N      346.431     284.320      -1.147
  C      347.151     283.225      -3.210
  C      346.926     282.200      -4.030
  O      348.192     279.721     -11.016
  O      347.943     281.492      -9.137
  H      343.452     281.337      -7.097
  H      348.024     282.191      -9.831
  H      347.989     283.898      -3.311
  H      347.584     282.001      -4.860
  H      344.843     279.584      -4.342
  H      345.648     281.634      -6.489
  H      345.472     279.809      -8.079
  H      346.687     277.947      -6.386
  H      345.860     284.276      -0.309
  H      348.003     280.592      -7.120
  H      347.356     284.710      -1.012
  H      348.855     279.100      -6.670
  P      343.186     278.474      -7.896
  C      344.456     277.162      -9.740
  O      343.811     278.363      -9.367
  O      342.647     279.988      -7.881
  O      342.069     277.537      -7.561
  H      341.705     279.998      -8.136
  H      344.808     277.261     -10.770
  H      343.755     276.326      -9.694
  H      345.311     276.970      -9.092
  H      351.920     279.284      -9.059
  H      350.890     278.571     -10.277
  H      350.556     278.301      -8.583

 3  4  5  6  7  8  9  10  11  12  13  23  27  28  29  30  32 0
 6-311+G(2d,p)
 ****
 34  35 0
 6-311+G(2d,p)
 ****
 1  2  14  15  16  17  18  19  20  21  22  24  25  26 0
 3-21G
 ****
 31  33  36  37  38  39  40  41  42  43  44  45  46 0
 3-21G
 ****


