%nproc=1
%NoSave
%Mem=1900MB
#P OB98/GEN NMR

erre ene a

0 1
  C       11.799      93.971    -247.713
  O       12.201      94.420    -246.417
  P       13.768      94.735    -246.223
  C       14.631      92.308    -245.968
  O       14.612      93.485    -246.759
  C       15.269      91.125    -246.707
  O       15.593      90.047    -245.790
  C       14.357      90.523    -247.785
  O       15.210      90.071    -248.853
  C       13.753      89.322    -247.105
  O       13.258      88.371    -248.050
  C       14.938      88.846    -246.251
  N       14.540      87.986    -245.136
  C       14.107      86.692    -245.457
  O       14.005      86.346    -246.640
  N       13.760      85.837    -244.439
  C       13.794      86.248    -243.212
  N       13.434      85.353    -242.247
  C       14.184      87.617    -242.834
  C       14.547      88.420    -243.836
  O       13.960      94.675    -244.631
  O       14.179      96.070    -246.770
  H       13.969      88.201    -248.710
  H       14.431      95.474    -244.322
  H       14.176      87.927    -241.790
  H       14.851      89.440    -243.655
  H       15.659      88.292    -246.864
  H       12.915      89.637    -246.457
  H       13.623      91.237    -248.183
  H       16.203      91.469    -247.160
  H       13.179      84.417    -242.548
  H       13.608      92.041    -245.680
  H       13.422      85.566    -241.262
  H       15.169      92.518    -245.031
  P       15.248      90.921    -250.213
  C       13.375      89.597    -251.384
  O       13.752      90.831    -250.797
  O       16.030      89.921    -251.197
  O       15.884      92.271    -250.188
  H       16.194      90.351    -252.049
  H       12.315      89.634    -251.622
  H       13.552      88.774    -250.684
  H       13.945      89.432    -252.301
  H       10.743      93.796    -247.718
  H       12.312      93.063    -247.951
  H       12.040      94.718    -248.440

 3  4  5  6  7  8  9  10  11  12  13  21  23  27  28  29  30  32 0
 6-311+G(2d,p)
 ****
 34  35 0
 6-311+G(2d,p)
 ****
 1  2  14  15  16  17  18  19  20  22  24  25  26 0
 3-21G
 ****
 31  33  36  37  38  39  40  41  42  43  44  45  46 0
 3-21G
 ****


