%nproc=1
%NoSave
%Mem=1900MB
#P OB98/GEN NMR

erre ene a

0 1
  C      234.914    -251.670    1521.695
  O      235.973    -252.469    1522.166
  P      236.485    -252.294    1523.679
  C      237.150    -250.325    1525.174
  O      237.050    -250.807    1523.850
  C      237.498    -248.826    1525.167
  O      236.649    -248.101    1524.236
  C      237.320    -248.144    1526.526
  O      238.391    -248.467    1527.406
  C      237.245    -246.661    1526.105
  O      238.592    -246.147    1525.912
  C      236.520    -246.753    1524.756
  N      233.197    -242.879    1525.003
  C      234.560    -242.940    1525.059
  N      235.357    -243.985    1525.009
  C      234.649    -245.125    1524.946
  C      233.272    -245.257    1524.935
  C      232.524    -244.061    1524.938
  N      231.147    -244.002    1524.817
  N      232.904    -246.585    1524.916
  C      234.038    -247.259    1524.906
  N      235.119    -246.415    1524.874
  O      237.390    -253.375    1524.163
  O      235.121    -252.273    1524.539
  H      238.948    -245.951    1526.790
  H      235.130    -253.025    1525.179
  H      235.052    -241.946    1525.108
  H      234.118    -248.334    1524.905
  H      236.968    -246.093    1524.005
  H      236.765    -246.033    1526.852
  H      236.355    -248.418    1526.962
  H      238.536    -248.720    1524.816
  H      237.945    -250.882    1525.694
  H      230.721    -243.096    1524.678
  H      230.647    -244.839    1524.476
  H      236.204    -250.500    1525.710
  P      238.240    -248.169    1528.963
  C      237.824    -245.993    1530.327
  O      238.427    -246.588    1529.181
  O      239.055    -249.033    1529.880
  O      236.671    -248.367    1529.240
  H      236.514    -248.695    1530.150
  H      236.752    -245.887    1530.140
  H      238.262    -245.047    1530.498
  H      237.988    -246.675    1531.195
  H      234.706    -251.918    1520.675
  H      235.189    -250.638    1521.762
  H      234.042    -251.846    1522.290

 3  4  5  6  7  8  9  10  11  12  22  25  29  30  31  32 0
 6-311+G(2d,p)
 ****
 33  36  37 0
 6-311+G(2d,p)
 ****
 1  2  13  14  15  16  17  18  19  20  21  23  24  26 0
 3-21G
 ****
 27  28  34  35  38  39  40  41  42  43  44  45  46  47  48 0
 3-21G
 ****


