%nproc=1
%NoSave
%Mem=1900MB
#P OB98/GEN NMR

erre ene a

0 1
  C      -57.099     251.271     395.553
  O      -57.079     251.323     394.137
  H      -56.070     251.331     395.919
  H      -57.540     250.334     395.903
  H      -57.660     252.119     395.948
  P      -58.430     250.972     393.351
  C      -57.604     248.692     392.469
  O      -57.982     250.023     392.130
  C      -56.518     248.166     391.532
  O      -56.138     246.821     391.897
  C      -56.945     248.071     390.075
  O      -57.193     249.306     389.446
  C      -55.894     247.140     389.498
  O      -54.690     247.822     389.161
  C      -55.641     246.182     390.695
  N      -56.243     244.873     390.491
  C      -55.511     243.976     389.723
  O      -54.426     244.254     389.203
  N      -56.084     242.748     389.526
  C      -57.310     242.356     389.979
  O      -57.775     241.244     389.751
  C      -58.058     243.355     390.755
  C      -57.495     244.552     390.978
  O      -59.259     252.152     392.928
  O      -59.198     249.966     394.328
  H      -54.444     248.370     389.930
  H      -60.146     249.870     394.072
  H      -55.560     242.081     388.977
  H      -59.037     243.084     391.121
  H      -58.026     245.308     391.551
  H      -54.562     246.044     390.848
  H      -56.239     246.629     388.598
  H      -57.902     247.521     390.032
  H      -55.631     248.804     391.645
  H      -58.499     248.058     392.378
  H      -57.260     248.664     393.508
  P      -58.398     249.568     388.436
  C      -56.903     249.543     386.289
  O      -57.808     250.262     387.110
  O      -59.656     250.117     389.017
  O      -58.713     248.069     387.911
  H      -59.680     248.016     387.758
  H      -56.615     250.152     385.458
  H      -57.376     248.652     385.932
  H      -56.035     249.282     386.858

 6  7  8  9  10  11  12  13  14  15  16  26  31  32  33  34  35 0
 6-311+G(2d,p)
 ****
 36  37 0
 6-311+G(2d,p)
 ****
 1  2  3  4  5  17  18  19  20  21  22  23  24  25 0
 3-21G
 ****
 27  28  29  30  38  39  40  41  42  43  44  45 0
 3-21G
 ****


