%nproc=1
%NoSave
%Mem=1900MB
#P OB98/GEN NMR

erre ene a

0 1
  C      146.643     247.948     504.017
  O      148.026     247.733     503.837
  H      146.263     248.514     503.163
  H      146.479     248.532     504.928
  H      146.097     247.005     504.087
  P      148.759     246.637     504.746
  C      150.505     246.660     506.651
  O      149.704     247.437     505.776
  C      150.676     247.349     508.003
  O      151.348     248.618     507.825
  C      149.304     247.667     508.629
  O      149.348     247.687     510.048
  C      149.020     249.067     508.120
  O      148.065     249.767     508.915
  C      150.420     249.678     508.130
  N      149.040     254.389     506.757
  C      148.513     253.582     507.747
  N      147.469     254.080     508.456
  N      148.964     252.380     508.015
  C      149.960     251.979     507.183
  C      150.541     252.683     506.151
  C      150.063     254.027     505.899
  O      150.480     254.786     505.029
  N      151.512     251.938     505.521
  C      151.510     250.784     506.165
  N      150.592     250.765     507.191
  O      149.829     245.972     503.751
  O      147.871     245.606     505.371
  H      147.895     250.623     508.481
  H      150.052     245.070     504.047
  H      148.665     255.314     506.611
  H      152.148     249.945     505.933
  H      150.661     250.068     509.133
  H      148.600     248.985     507.102
  H      146.990     254.917     508.174
  H      148.540     246.956     508.304
  H      146.897     253.403     508.968
  H      151.306     246.750     508.670
  H      151.478     246.530     506.171
  H      150.067     245.662     506.778
  P      148.266     246.803     510.846
  C      145.911     247.267     511.920
  O      147.105     247.786     511.345
  O      149.025     246.379     512.187
  O      147.782     245.617     510.071
  H      149.293     245.453     512.145
  H      145.263     248.076     512.188
  H      146.153     246.700     512.794
  H      145.419     246.636     511.210

 6  7  8  9  10  11  12  13  14  15  26  29  33  34 0
 6-311+G(2d,p)
 ****
 36  38  39  40  41 0
 6-311+G(2d,p)
 ****
 1  2  3  4  5  16  17  18  19  20  21  22  23  24  25 0
 3-21G
 ****
 27  28  30  31  32  35  37  42  43  44  45  46  47 0
 3-21G
 ****
 48  49 0
 3-21G
 ****


