%nproc=1
%NoSave
%Mem=1900MB
#P OB98/GEN NMR

erre ene a

0 1
  C       25.724    -118.872      -5.089
  O       25.356    -117.850      -4.176
  P       25.472    -118.171      -2.609
  C       27.432    -118.562      -0.966
  O       27.019    -118.498      -2.324
  C       28.713    -119.375      -0.825
  O       28.401    -120.781      -1.024
  C       29.814    -118.999      -1.829
  O       31.076    -118.953      -1.150
  C       29.846    -120.185      -2.779
  O       31.116    -120.331      -3.406
  C       29.475    -121.317      -1.823
  N       31.039    -125.164      -4.695
  C       31.775    -124.218      -4.011
  N       33.118    -124.274      -4.162
  N       31.247    -123.297      -3.250
  C       29.896    -123.380      -3.167
  C       29.058    -124.275      -3.789
  C       29.654    -125.250      -4.676
  O       29.050    -126.058      -5.381
  N       27.749    -124.053      -3.447
  C       27.792    -123.024      -2.623
  N       29.069    -122.549      -2.460
  O       24.753    -119.595      -2.483
  O       24.846    -117.168      -1.704
  H       31.775    -120.442      -2.694
  H       24.029    -119.543      -1.829
  H       31.496    -125.840      -5.282
  H       26.930    -122.572      -2.150
  H       30.314    -121.547      -1.155
  H       29.087    -120.044      -3.555
  H       33.592    -124.979      -4.702
  H       29.641    -118.055      -2.352
  H       33.676    -123.603      -3.648
  H       29.078    -119.274       0.205
  H       26.641    -119.030      -0.371
  H       27.592    -117.543      -0.598
  P       32.103    -117.823      -1.651
  C       31.984    -115.226      -1.813
  O       31.297    -116.442      -1.583
  O       32.233    -118.112      -3.219
  O       33.421    -117.851      -0.953
  H       33.082    -117.772      -3.559
  H       33.000    -115.391      -2.184
  H       32.035    -114.664      -0.879
  H       31.430    -114.641      -2.551
  H       25.596    -118.518      -6.091
  H       25.105    -119.730      -4.932
  H       26.749    -119.138      -4.933

 3  4  5  6  7  8  9  10  11  12  23  26  30  31  33  0
 6-311+G(2d,p)
 ****
 35  36  37  38 0
 6-311+G(2d,p)
 ****
 1  2  13  14  15  16  17  18  19  20  21  22  24  25  27  28  29 0
 3-21G
 ****
 32  34  39  40  41  42  43  44  45  46  47  48  49 0
 3-21G
 ****


