%nproc=1
%NoSave
%Mem=1900MB
#P OB98/GEN NMR

erre ene a

0 1
  C     -123.825     416.967    -204.190
  O     -122.747     417.884    -204.284
  P     -122.731     419.125    -203.268
  C     -122.895     421.696    -203.520
  O     -123.084     420.431    -204.137
  C     -123.032     422.822    -204.537
  O     -121.896     422.776    -205.445
  C     -124.309     422.752    -205.391
  O     -124.875     424.064    -205.507
  C     -123.794     422.349    -206.766
  O     -124.666     422.774    -207.808
  C     -122.427     423.033    -206.761
  N     -121.666     422.661    -211.740
  C     -122.584     423.421    -211.043
  N     -123.459     424.137    -211.784
  N     -122.643     423.467    -209.738
  C     -121.688     422.729    -209.127
  C     -120.720     421.941    -209.709
  C     -120.703     421.848    -211.154
  O     -119.974     421.124    -211.829
  N     -119.919     421.353    -208.762
  C     -120.406     421.778    -207.610
  N     -121.508     422.578    -207.779
  O     -121.173     419.300    -202.940
  O     -123.530     418.942    -202.025
  H     -124.251     422.511    -208.650
  H     -121.034     419.252    -201.975
  H     -121.673     422.645    -212.746
  H     -120.015     421.511    -206.636
  H     -122.542     424.120    -206.881
  H     -123.700     421.257    -206.808
  H     -123.446     424.173    -212.790
  H     -125.065     422.054    -205.014
  H     -124.125     424.718    -211.289
  H     -122.976     423.782    -204.008
  H     -121.895     421.733    -203.076
  H     -123.638     421.817    -202.725
  P     -126.449     424.127    -205.815
  C     -127.831     424.588    -207.977
  O     -126.578     424.645    -207.328
  O     -126.949     425.371    -204.944
  O     -127.182     422.866    -205.489
  H     -127.900     425.283    -204.735
  H     -128.644     424.331    -207.287
  H     -127.789     423.838    -208.768
  H     -128.045     425.564    -208.423
  H     -123.704     416.198    -204.924
  H     -124.747     417.482    -204.362
  H     -123.837     416.530    -203.213

 3  4  5  6  7  8  9  10  11  12  23  26  30  31  33  0
 6-311+G(2d,p)
 ****
 35  36  37  38 0
 6-311+G(2d,p)
 ****
 1  2  13  14  15  16  17  18  19  20  21  22  24  25  27  28  29 0
 3-21G
 ****
 32  34  39  40  41  42  43  44  45  46  47  48  49 0
 3-21G
 ****


