%nproc=1
%NoSave
%Mem=1900MB
#P OB98/GEN NMR

erre ene a

0 1
  C     -916.911    -523.533     -25.967
  O     -916.822    -522.514     -26.983
  P     -918.123    -521.592     -27.173
  C     -919.184    -523.011     -29.065
  O     -919.312    -522.510     -27.743
  C     -920.339    -523.933     -29.459
  O     -921.623    -523.272     -29.206
  C     -920.340    -524.340     -30.938
  O     -920.857    -525.686     -31.004
  C     -921.345    -523.402     -31.563
  O     -921.832    -523.886     -32.809
  C     -922.393    -523.347     -30.436
  N     -926.876    -521.866     -32.251
  C     -926.189    -523.078     -32.408
  N     -926.817    -524.013     -33.120
  N     -924.997    -523.301     -31.920
  C     -924.505    -522.260     -31.195
  C     -925.079    -521.038     -30.947
  C     -926.389    -520.781     -31.522
  O     -927.031    -519.736     -31.406
  N     -924.276    -520.242     -30.148
  C     -923.185    -520.984     -29.969
  N     -923.300    -522.231     -30.537
  O     -917.730    -520.643     -28.403
  O     -918.475    -520.794     -25.951
  H     -922.523    -523.265     -33.117
  H     -917.440    -519.771     -28.082
  H     -927.774    -521.747     -32.662
  H     -922.327    -520.693     -29.414
  H     -923.012    -524.264     -30.409
  H     -920.892    -522.410     -31.713
  H     -927.763    -523.921     -33.484
  H     -919.347    -524.302     -31.419
  H     -926.370    -524.932     -33.216
  H     -920.294    -524.829     -28.816
  H     -918.231    -523.577     -29.158
  H     -919.086    -522.164     -29.758
  P     -919.805    -526.905     -31.108
  C     -919.635    -527.017     -33.709
  O     -919.005    -526.689     -32.480
  O     -920.742    -528.165     -31.429
  O     -918.987    -527.124     -29.885
  H     -920.422    -528.935     -30.950
  H     -919.181    -526.396     -34.494
  H     -920.718    -526.800     -33.651
  H     -919.469    -528.069     -33.920
  H     -915.993    -524.081     -25.930
  H     -917.715    -524.199     -26.200
  H     -917.091    -523.075     -25.017

 3  4  5  6  7  8  9  10  11  12  23  26  30  31 0
 6-311+G(2d,p)
 ****
 33  35  36  37  38 0
 6-311+G(2d,p)
 ****
 1  2  13  14  15  16  17  18  19  20  21  22  24  25 0
 3-21G
 ****
 27  28  29  32  34  39  40  41  42  43  44  45  46  47  48  49 0
 3-21G
 ****


