%nproc=1
%NoSave
%Mem=1900MB
#P OB98/GEN NMR

erre ene a

0 1
  C       74.148    -137.880      -1.423
  O       74.042    -136.725      -0.615
  H       75.176    -138.251      -1.418
  H       73.492    -138.656      -1.019
  H       73.839    -137.653      -2.448
  P       74.959    -135.472      -1.020
  C       76.785    -136.417       0.576
  O       75.994    -135.299       0.196
  C       78.248    -135.997       0.653
  O       79.074    -137.133       1.001
  C       78.806    -135.465      -0.664
  O       78.484    -134.103      -0.881
  C       80.296    -135.651      -0.433
  O       80.787    -134.613       0.435
  C       80.333    -137.010       0.284
  N       82.886    -141.354      -0.621
  C       82.937    -140.475       0.404
  N       82.208    -139.354       0.580
  C       81.349    -139.178      -0.436
  C       81.181    -139.993      -1.545
  C       82.005    -141.128      -1.623
  N       81.981    -142.009      -2.681
  N       80.216    -139.472      -2.386
  C       79.799    -138.377      -1.784
  N       80.477    -138.140      -0.618
  O       73.986    -134.213      -0.844
  O       75.595    -135.536      -2.369
  H       80.659    -133.767      -0.031
  H       74.368    -133.425      -1.275
  H       83.659    -140.702       1.183
  H       79.023    -137.720      -2.154
  H       81.143    -137.075       1.020
  H       80.876    -135.596      -1.358
  H       78.496    -136.087      -1.510
  H       78.352    -135.253       1.454
  H       76.668    -137.209      -0.172
  H       82.709    -142.705      -2.718
  H       81.436    -141.771      -3.498
  H       76.447    -136.787       1.549
  P       78.245    -133.631      -2.398
  C       80.739    -133.788      -3.109
  O       79.615    -132.945      -2.882
  O       77.249    -132.390      -2.235
  O       77.691    -134.688      -3.299
  H       76.647    -132.323      -3.000
  H       81.572    -133.195      -3.425
  H       80.501    -134.502      -3.869
  H       80.989    -134.301      -2.204

 6  7  8  9  10  11  12  13  14  15  25  28  32  33  34  35 0
 6-311+G(2d,p)
 ****
 36  39  40 0
 6-311+G(2d,p)
 ****
 1  2  3  4  5  16  17  18  19  20  21  22  23  24 0
 3-21G
 ****
 26  27  29  30  31  37  38  41  42  43  44  45  46  47 0
 3-21G
 ****
 48 0
 3-21G
 ****


