%nproc=1
%NoSave
%Mem=1900MB
#P OB98/GEN NMR

erre ene a

0 1
  C       38.896      41.047     -50.474
  O       37.857      41.496     -49.633
  H       38.814      41.560     -51.435
  H       38.794      39.971     -50.640
  H       39.879      41.260     -50.046
  P       37.993      41.273     -48.056
  C       38.166      42.732     -45.934
  O       38.098      42.714     -47.354
  C       38.746      44.046     -45.413
  O       40.148      44.125     -45.748
  C       38.074      45.273     -46.035
  O       36.905      45.707     -45.361
  C       39.181      46.319     -45.943
  O       39.141      47.013     -44.685
  C       40.464      45.489     -46.057
  N       44.097      47.575     -48.987
  C       43.716      47.918     -47.703
  N       44.362      48.970     -47.155
  N       42.779      47.293     -47.040
  C       42.157      46.329     -47.754
  C       42.433      45.915     -49.038
  C       43.521      46.562     -49.739
  O       43.907      46.285     -50.869
  N       41.563      44.934     -49.450
  C       40.713      44.821     -48.449
  N       41.079      45.588     -47.368
  O       39.482      40.699     -47.888
  O       36.995      40.335     -47.449
  H       39.315      46.364     -43.976
  H       39.514      40.093     -47.125
  H       44.843      48.074     -49.435
  H       39.846      44.170     -48.436
  H       41.216      45.815     -45.328
  H       39.067      47.076     -46.723
  H       45.028      49.538     -47.651
  H       37.856      45.099     -47.092
  H       43.985      49.371     -46.295
  H       38.677      44.062     -44.318
  H       38.807      41.898     -45.643
  H       37.177      42.552     -45.504
  P       35.795      46.572     -46.118
  C       33.425      47.521     -45.508
  O       34.523      46.706     -45.165
  O       35.292      45.584     -47.270
  O       36.264      47.880     -46.666
  H       35.724      45.796     -48.118
  H       32.686      47.468     -44.736
  H       33.002      47.180     -46.430
  H       33.753      48.533     -45.618

 6  7  8  9  10  11  12  13  14  15  26  29  33  34 0
 6-311+G(2d,p)
 ****
 36  38  39  40  41 0
 6-311+G(2d,p)
 ****
 1  2  3  4  5  16  17  18  19  20  21  22  23  24  25 0
 3-21G
 ****
 27  28  30  31  32  35  37  42  43  44  45  46  47 0
 3-21G
 ****
 48  49 0
 3-21G
 ****


