%nproc=1
%NoSave
%Mem=1900MB
#P OB98/GEN NMR

erre ene a

0 1
  C     -860.669    -692.799    -369.686
  O     -860.094    -693.963    -369.127
  H     -859.890    -692.055    -369.891
  H     -861.159    -693.061    -370.628
  H     -861.414    -692.377    -369.001
  P     -859.288    -693.780    -367.752
  C     -861.280    -693.849    -366.076
  O     -860.316    -693.055    -366.756
  C     -861.865    -693.049    -364.916
  O     -860.826    -692.712    -363.969
  C     -862.491    -691.725    -365.337
  O     -863.808    -691.875    -365.829
  C     -862.470    -690.975    -364.019
  O     -863.540    -691.442    -363.177
  C     -861.112    -691.389    -363.444
  N     -859.536    -686.514    -363.474
  C     -860.663    -687.100    -362.998
  N     -860.990    -688.403    -363.000
  C     -860.029    -689.138    -363.575
  C     -858.833    -688.687    -364.112
  C     -858.597    -687.303    -364.051
  N     -857.472    -686.705    -364.568
  N     -858.103    -689.735    -364.634
  C     -858.844    -690.804    -364.407
  N     -860.029    -690.490    -363.802
  O     -858.228    -692.628    -368.078
  O     -858.659    -695.017    -367.197
  H     -863.309    -691.207    -362.262
  H     -857.542    -692.594    -367.389
  H     -861.380    -686.423    -362.538
  H     -858.571    -691.819    -364.668
  H     -861.125    -691.463    -362.342
  H     -862.615    -689.895    -364.141
  H     -861.852    -691.189    -366.057
  H     -862.597    -693.680    -364.397
  H     -860.793    -694.751    -365.692
  H     -857.465    -685.692    -364.609
  H     -856.836    -687.252    -365.126
  H     -862.072    -694.136    -366.774
  P     -864.203    -691.043    -367.148
  C     -865.289    -692.927    -368.571
  O     -864.156    -692.077    -368.376
  O     -862.918    -690.122    -367.388
  O     -865.460    -690.234    -367.018
  H     -863.170    -689.268    -367.791
  H     -865.120    -693.558    -369.418
  H     -866.159    -692.328    -368.741
  H     -865.436    -693.531    -367.700

 6  7  8  9  10  11  12  13  14  15  25  28  32  33  34  35 0
 6-311+G(2d,p)
 ****
 36  39  40 0
 6-311+G(2d,p)
 ****
 1  2  3  4  5  16  17  18  19  20  21  22  23  24 0
 3-21G
 ****
 26  27  29  30  31  37  38  41  42  43  44  45  46  47 0
 3-21G
 ****
 48 0
 3-21G
 ****


