%nproc=1
%NoSave
%Mem=1900MB
#P OB98/GEN NMR

erre ene a

0 1
  C        8.233     -64.325      23.706
  O        8.008     -62.967      23.367
  P        6.578     -62.335      23.734
  C        5.624     -62.694      21.345
  O        5.507     -62.984      22.730
  C        4.430     -63.252      20.568
  O        4.263     -64.657      20.907
  C        3.094     -62.547      20.858
  O        2.351     -62.551      19.634
  C        2.464     -63.472      21.886
  O        1.070     -63.284      22.055
  C        2.890     -64.828      21.329
  N        1.087     -69.534      22.188
  C        1.094     -68.762      21.078
  N        1.600     -67.520      20.923
  C        2.155     -67.088      22.068
  C        2.207     -67.754      23.281
  C        1.640     -69.038      23.319
  N        1.626     -69.821      24.457
  N        2.832     -66.981      24.239
  C        3.150     -65.866      23.616
  N        2.781     -65.893      22.299
  O        6.704     -60.829      23.211
  O        6.213     -62.397      25.185
  H        0.643     -63.159      21.184
  H        6.266     -60.205      23.820
  H        0.631     -69.198      20.199
  H        3.632     -65.010      24.071
  H        2.302     -65.112      20.448
  H        2.933     -63.290      22.861
  H        3.214     -61.516      21.201
  H        4.660     -63.200      19.496
  H        6.535     -63.157      20.952
  H        1.026     -70.633      24.434
  H        1.851     -69.365      25.332
  H        5.712     -61.610      21.207
  P        1.281     -61.383      19.373
  C       -0.658     -62.947      20.008
  O        0.051     -61.767      20.334
  O        0.711     -61.809      17.937
  O        1.803     -59.991      19.448
  H        0.442     -62.745      17.921
  H       -1.397     -63.138      20.791
  H        0.026     -63.798      19.949
  H       -1.179     -62.817      19.055
  H        9.220     -64.609      23.405
  H        7.516     -64.941      23.205
  H        8.133     -64.450      24.764

 3  4  5  6  7  8  9  10  11  12  22  25  29  30  31  32 0
 6-311+G(2d,p)
 ****
 33  36  37 0
 6-311+G(2d,p)
 ****
 1  2  13  14  15  16  17  18  19  20  21  23  24  26 0
 3-21G
 ****
 27  28  34  35  38  39  40  41  42  43  44  45  46  47  48 0
 3-21G
 ****


