%nproc=1
%NoSave
%Mem=1900MB
#P OB98/GEN NMR

erre ene a

0 1
  C     -358.072      -5.444      58.404
  O     -356.929      -5.937      57.734
  H     -357.751      -4.756      59.188
  H     -358.619      -6.271      58.864
  H     -358.725      -4.907      57.710
  P     -357.169      -6.783      56.394
  C     -355.473      -5.845      54.661
  O     -355.756      -6.841      55.632
  C     -354.000      -5.443      54.740
  O     -353.773      -4.761      56.007
  C     -353.026      -6.627      54.675
  O     -351.860      -6.212      53.953
  C     -352.656      -6.846      56.129
  O     -351.413      -7.510      56.316
  C     -352.655      -5.405      56.650
  N     -352.771      -5.332      58.105
  C     -351.852      -4.533      58.779
  O     -351.009      -3.822      58.237
  N     -351.931      -4.573      60.148
  C     -352.794      -5.329      60.884
  O     -352.800      -5.336      62.110
  C     -353.733      -6.157      60.116
  C     -353.677      -6.123      58.784
  O     -358.036      -5.788      55.491
  O     -357.828      -8.108      56.581
  H     -358.989      -5.918      55.657
  H     -351.277      -7.609      57.283
  H     -351.271      -4.000      60.653
  H     -354.426      -6.779      60.667
  H     -354.341      -6.739      58.185
  H     -351.747      -4.884      56.325
  H     -353.434      -7.440      56.626
  H     -353.445      -7.527      54.216
  H     -353.789      -4.718      53.944
  H     -356.093      -4.964      54.853
  H     -355.710      -6.233      53.664
  P     -351.429      -7.095      52.683
  C     -351.979      -5.403      50.757
  O     -350.992      -6.040      51.555
  O     -352.848      -7.639      52.190
  O     -350.425      -8.145      53.016
  H     -353.568      -6.997      52.316
  H     -351.504      -4.739      50.065
  H     -352.643      -4.848      51.386
  H     -352.534      -6.142      50.218

 6  7  8  9  10  11  12  13  14  15  16  27  31  32  33  34  35 0
 6-311+G(2d,p)
 ****
 36  37 0
 6-311+G(2d,p)
 ****
 1  2  3  4  5  17  18  19  20  21  22  23  24  25 0
 3-21G
 ****
 26  28  29  30  38  39  40  41  42  43  44  45 0
 3-21G
 ****


