%nproc=1
%NoSave
%Mem=1900MB
#P OB98/GEN NMR

erre ene a

0 1
  C      102.945     154.035    -541.656
  O      103.274     154.378    -543.000
  P      104.564     153.633    -543.611
  C      107.133     153.959    -543.437
  O      105.843     154.555    -543.311
  C      108.175     155.007    -543.842
  O      107.963     155.445    -545.224
  C      108.168     156.278    -542.963
  O      109.520     156.724    -542.851
  C      107.348     157.241    -543.809
  O      107.487     158.597    -543.398
  C      107.887     156.894    -545.196
  N      107.585     160.326    -548.972
  C      108.531     160.084    -548.036
  N      108.527     159.158    -547.063
  C      107.412     158.420    -547.107
  C      106.345     158.546    -547.986
  C      106.460     159.552    -548.961
  N      105.490     159.824    -549.898
  N      105.362     157.610    -547.707
  C      105.795     156.981    -546.624
  N      107.058     157.390    -546.275
  O      104.353     153.767    -545.199
  O      104.698     152.216    -543.169
  H      108.431     158.847    -543.416
  H      103.978     152.929    -545.560
  H      109.402     160.738    -548.065
  H      105.237     156.260    -546.056
  H      108.900     157.283    -545.360
  H      106.286     156.980    -543.727
  H      107.755     156.111    -541.951
  H      109.179     154.536    -543.798
  H      107.111     153.160    -544.196
  H      105.655     160.572    -550.550
  H      104.640     159.273    -549.923
  H      107.403     153.485    -542.475
  P      110.249     156.646    -541.424
  C      110.593     158.324    -539.497
  O      109.956     158.087    -540.745
  O      111.781     156.814    -541.849
  O      109.975     155.416    -540.598
  H      111.898     157.574    -542.454
  H      110.381     159.341    -539.187
  H      111.682     158.186    -539.592
  H      110.182     157.642    -538.734
  H      102.078     154.583    -541.350
  H      103.766     154.279    -541.014
  H      102.744     152.986    -541.595

 3  4  5  6  7  8  9  10  11  12  22  25  29  30  31  32 0
 6-311+G(2d,p)
 ****
 33  36  37 0
 6-311+G(2d,p)
 ****
 1  2  13  14  15  16  17  18  19  20  21  23  24  26 0
 3-21G
 ****
 27  28  34  35  38  39  40  41  42  43  44  45  46  47  48 0
 3-21G
 ****


