%nproc=1
%NoSave
%Mem=1900MB
#P OB98/GEN NMR

erre ene a

0 1
  C      169.617    -171.176    -379.636
  O      168.501    -171.919    -379.176
  H      169.430    -170.107    -379.506
  H      170.493    -171.457    -379.042
  H      169.820    -171.398    -380.688
  P      167.148    -171.789    -380.025
  C      165.649    -169.944    -378.950
  O      166.018    -171.322    -378.979
  C      165.581    -169.442    -377.506
  O      164.389    -169.992    -376.877
  C      166.786    -169.856    -376.655
  O      167.129    -168.771    -375.783
  C      166.269    -171.030    -375.843
  O      166.982    -171.202    -374.633
  C      164.801    -170.632    -375.654
  N      163.872    -174.414    -372.339
  C      164.701    -173.346    -372.288
  N      164.879    -172.384    -373.211
  C      164.057    -172.573    -374.266
  C      163.162    -173.609    -374.460
  C      163.086    -174.576    -373.439
  N      162.279    -175.683    -373.500
  N      162.524    -173.471    -375.681
  C      163.032    -172.380    -376.208
  N      163.959    -171.798    -375.387
  O      166.780    -173.324    -380.317
  O      167.241    -170.988    -381.280
  H      166.537    -171.904    -374.101
  H      167.322    -173.654    -381.062
  H      165.304    -173.263    -371.381
  H      162.761    -171.963    -377.179
  H      164.654    -169.937    -374.821
  H      166.359    -171.949    -376.427
  H      167.657    -170.124    -377.260
  H      165.458    -168.352    -377.525
  H      164.673    -169.833    -379.430
  H      162.332    -176.357    -372.751
  H      161.742    -175.845    -374.337
  H      166.394    -169.368    -379.511
  P      168.137    -167.656    -376.370
  C      169.981    -167.672    -374.544
  O      168.902    -166.963    -375.137
  O      167.153    -166.510    -376.906
  O      169.021    -168.176    -377.462
  H      167.393    -166.263    -377.815
  H      170.391    -167.093    -373.743
  H      170.738    -167.849    -375.279
  H      169.627    -168.607    -374.164

 6  7  8  9  10  11  12  13  14  15  25  28  32  33  34  35 0
 6-311+G(2d,p)
 ****
 36  39  40 0
 6-311+G(2d,p)
 ****
 1  2  3  4  5  16  17  18  19  20  21  22  23  24 0
 3-21G
 ****
 26  27  29  30  31  37  38  41  42  43  44  45  46  47 0
 3-21G
 ****
 48 0
 3-21G
 ****


