%nproc=1
%NoSave
%Mem=1900MB
#P OB98/GEN NMR

erre ene a

0 1
  C      -92.322     309.419     101.538
  O      -90.941     309.574     101.866
  P      -90.099     308.275     102.289
  C      -88.886     306.327     101.115
  O      -89.554     307.575     100.953
  C      -88.043     306.000      99.882
  O      -88.785     306.195      98.660
  C      -86.808     306.876      99.747
  O      -85.812     306.493     100.680
  C      -86.445     306.660      98.286
  O      -85.701     305.445      98.112
  C      -87.837     306.525      97.623
  N      -88.238     307.717      96.889
  C      -87.606     307.923      95.658
  O      -86.733     307.145      95.270
  N      -87.969     309.013      94.908
  C      -88.877     309.829      95.351
  N      -89.197     310.891      94.566
  C      -89.557     309.655      96.649
  C      -89.187     308.593      97.363
  O      -90.768     307.361     103.259
  O      -88.764     308.908     102.917
  H      -84.875     305.559      98.618
  H      -88.421     308.301     103.601
  H      -90.311     310.360      96.973
  H      -89.636     308.391      98.330
  H      -87.841     305.682      96.921
  H      -85.829     307.474      97.895
  H      -87.082     307.927      99.907
  H      -87.746     304.941      99.942
  H      -88.707     310.995      93.685
  H      -89.622     305.538     101.283
  H      -89.924     311.552      94.799
  H      -88.264     306.375     102.016
  P      -85.854     307.171     102.133
  C      -86.806     306.422     104.427
  O      -86.915     306.361     103.016
  O      -86.592     308.568     101.856
  O      -84.517     307.381     102.767
  H      -86.233     309.247     102.453
  H      -87.755     306.098     104.862
  H      -86.593     307.440     104.767
  H      -86.018     305.749     104.765
  H      -92.736     310.371     101.280
  H      -92.846     309.019     102.381
  H      -92.419     308.751     100.708

 3  4  5  6  7  8  9  10  11  12  13  23  27  28  29  30  32 0
 6-311+G(2d,p)
 ****
 34  35 0
 6-311+G(2d,p)
 ****
 1  2  14  15  16  17  18  19  20  21  22  24  25  26 0
 3-21G
 ****
 31  33  36  37  38  39  40  41  42  43  44  45  46 0
 3-21G
 ****


