%nproc=1
%NoSave
%Mem=1900MB
#P OB98/GEN NMR

erre ene a

0 1
  C      240.173    -894.350    -601.873
  O      239.011    -893.870    -602.536
  H      240.978    -893.620    -602.039
  H      240.490    -895.300    -602.273
  H      239.982    -894.420    -600.809
  P      237.718    -894.830    -602.588
  C      236.686    -893.160    -600.908
  O      236.902    -894.550    -601.226
  C      236.616    -892.980    -599.389
  O      235.422    -893.700    -598.921
  C      237.828    -893.510    -598.596
  O      238.083    -892.620    -597.535
  C      237.326    -894.860    -598.111
  O      238.053    -895.300    -596.981
  C      235.838    -894.610    -597.883
  N      235.060    -895.850    -597.884
  C      235.108    -896.610    -596.750
  O      235.734    -896.250    -595.746
  N      234.448    -897.830    -596.738
  C      233.870    -898.270    -597.813
  N      233.304    -899.480    -597.769
  C      233.845    -897.490    -599.083
  C      234.441    -896.300    -599.045
  O      237.980    -896.270    -602.873
  O      236.806    -894.160    -603.728
  H      237.984    -894.650    -596.259
  H      237.015    -894.550    -604.596
  H      233.359    -897.870    -599.964
  H      234.506    -895.640    -599.937
  H      235.680    -894.130    -596.914
  H      237.461    -895.620    -598.918
  H      238.727    -893.630    -599.256
  H      236.438    -891.910    -599.189
  H      233.348    -900.000    -596.877
  H      235.783    -892.850    -601.385
  H      232.847    -899.940    -598.568
  H      237.516    -892.570    -601.295
  P      239.194    -891.480    -597.685
  C      237.658    -889.540    -596.973
  O      238.440    -890.090    -598.041
  O      240.349    -891.820    -598.560
  O      239.688    -891.240    -596.163
  H      240.630    -890.950    -596.185
  H      237.201    -888.629    -597.298
  H      238.291    -889.341    -596.133
  H      236.899    -890.239    -596.690

 6  7  8  9  10  11  12  13  14  15  16  26  30  31  32  33  35 0
 6-311+G(2d,p)
 ****
 37  38 0
 6-311+G(2d,p)
 ****
 1  2  3  4  5  17  18  19  20  21  22  23  24  25 0
 3-21G
 ****
 27  28  29  34  36  39  40  41  42  43  44  45  46 0
 3-21G
 ****


