%nproc=1
%NoSave
%Mem=1900MB
#P OB98/GEN NMR

erre ene a

0 1
  C      105.620      -5.385     -42.441
  O      106.967      -5.801     -42.344
  H      104.951      -6.241     -42.320
  H      105.416      -4.665     -41.645
  H      105.441      -4.905     -43.406
  P      107.479      -6.861     -43.435
  C      108.459      -8.231     -41.457
  O      107.675      -8.242     -42.642
  C      107.727      -8.983     -40.352
  O      106.344      -8.567     -40.297
  C      107.696     -10.496     -40.536
  O      108.897     -11.113     -40.110
  C      106.535     -10.863     -39.628
  O      106.966     -10.834     -38.255
  C      105.550      -9.719     -39.902
  N      100.924     -11.651     -40.920
  C      101.608     -11.512     -39.765
  N      102.838     -10.991     -39.579
  C      103.366     -10.590     -40.746
  C      102.791     -10.676     -42.003
  C      101.502     -11.231     -42.068
  N      100.807     -11.390     -43.246
  N      103.654     -10.192     -42.968
  C      104.715      -9.792     -42.297
  N      104.594     -10.020     -40.953
  O      108.982      -6.397     -43.734
  O      106.655      -6.963     -44.675
  H      107.539     -11.613     -38.126
  H      109.277      -6.752     -44.593
  H      101.101     -11.867     -38.872
  H      105.590      -9.333     -42.737
  H      104.978      -9.435     -39.012
  H      106.141     -11.862     -39.820
  H      107.445     -10.772     -41.568
  H      108.193      -8.717     -39.394
  H      108.622      -7.196     -41.144
  H       99.978     -11.963     -43.207
  H      101.291     -11.219     -44.115
  H      109.426      -8.699     -41.662
  P      109.925     -11.589     -41.247
  C      109.519     -14.060     -40.547
  O      109.522     -13.099     -41.599
  O      111.302     -11.744     -40.451
  O      110.042     -10.660     -42.411
  H      112.064     -11.623     -41.048
  H      109.231     -15.014     -40.936
  H      108.824     -13.759     -39.791
  H      110.499     -14.128     -40.124

 6  7  8  9  10  11  12  13  14  15  25  28  32  33  34  35 0
 6-311+G(2d,p)
 ****
 36  39  40 0
 6-311+G(2d,p)
 ****
 1  2  3  4  5  16  17  18  19  20  21  22  23  24 0
 3-21G
 ****
 26  27  29  30  31  37  38  41  42  43  44  45  46  47 0
 3-21G
 ****
 48 0
 3-21G
 ****


