%nproc=1
%NoSave
%Mem=1900MB
#P OB98/GEN NMR

erre ene a

0 1
  C       -6.076     150.857      55.636
  O       -5.588     151.875      54.766
  P       -6.596     153.054      54.368
  C       -7.183     152.324      51.918
  O       -7.603     152.482      53.259
  C       -8.291     152.751      50.937
  O       -9.383     151.801      51.037
  C       -8.914     154.115      51.212
  O       -9.588     154.556      50.031
  C       -9.935     153.778      52.277
  O      -10.920     154.801      52.403
  C      -10.453     152.398      51.815
  N      -10.831     151.504      52.930
  C      -12.048     151.722      53.572
  O      -12.832     152.620      53.269
  N      -12.334     150.892      54.621
  C      -11.561     149.860      55.058
  O      -11.822     149.203      56.058
  C      -10.359     149.585      54.261
  C      -10.048     150.410      53.259
  O       -5.672     154.083      53.566
  O       -7.266     153.693      55.537
  H      -10.445     155.659      52.317
  H       -5.479     154.863      54.118
  H      -13.180     151.082      55.138
  H       -9.753     148.730      54.536
  H       -9.151     150.232      52.672
  H      -11.335     152.504      51.170
  H       -9.437     153.686      53.247
  H       -8.208     154.879      51.546
  H       -7.904     152.701      49.913
  H       -6.897     151.285      51.738
  H       -6.288     152.931      51.739
  P       -8.829     155.601      49.079
  C       -9.135     157.720      50.501
  O       -8.230     156.735      50.042
  O       -9.601     156.095      47.902
  O       -7.518     154.793      48.633
  H       -7.138     155.199      47.834
  H       -8.799     158.078      51.478
  H      -10.149     157.319      50.599
  H       -9.143     158.557      49.798
  H       -5.302     150.140      55.816
  H       -6.914     150.371      55.182
  H       -6.378     151.296      56.564

 3  4  5  6  7  8  9  10  11  12  13  23  28  29  30  31  32 0
 6-311+G(2d,p)
 ****
 33  34 0
 6-311+G(2d,p)
 ****
 1  2  14  15  16  17  18  19  20  21  22  24  25  26  27 0
 3-21G
 ****
 35  36  37  38  39  40  41  42  43  44  45 0
 3-21G
 ****


