%nproc=1
%NoSave
%Mem=1900MB
#P OB98/GEN NMR

erre ene a

0 1
  C      357.966     -27.386     258.150
  O      358.130     -27.699     259.517
  H      357.096     -26.733     258.046
  H      357.809     -28.286     257.560
  H      358.846     -26.848     257.773
  P      359.286     -28.737     259.929
  C      360.481     -27.255     261.676
  O      359.683     -28.401     261.448
  C      360.243     -26.692     263.079
  O      358.900     -26.107     263.132
  C      360.329     -27.755     264.201
  O      360.776     -27.089     265.390
  C      358.865     -28.158     264.339
  O      358.648     -28.889     265.520
  C      358.190     -26.797     264.200
  N      356.760     -26.898     263.909
  C      355.913     -26.054     264.645
  O      356.397     -25.280     265.475
  N      354.564     -26.120     264.421
  C      354.093     -27.014     263.603
  N      352.731     -27.036     263.444
  C      354.936     -27.962     262.860
  C      356.257     -27.852     263.053
  O      360.442     -28.834     258.980
  O      358.514     -30.136     260.055
  H      357.679     -28.976     265.707
  H      358.718     -30.694     259.283
  H      354.494     -28.690     262.202
  H      356.966     -28.510     262.550
  H      358.315     -26.202     265.112
  H      358.569     -28.809     263.510
  H      360.990     -28.585     263.954
  H      360.951     -25.875     263.264
  H      352.192     -26.375     263.984
  H      360.212     -26.500     260.921
  H      352.253     -27.694     262.845
  H      361.545     -27.501     261.566
  P      361.304     -27.892     266.673
  C      363.560     -26.630     266.830
  O      362.333     -26.964     267.482
  O      361.823     -29.255     266.387
  O      360.031     -27.963     267.660
  H      360.082     -28.780     268.189
  H      364.150     -26.012     267.474
  H      363.350     -26.102     265.923
  H      364.099     -27.526     266.604

 6  7  8  9  10  11  12  13  14  15  16  26  30  31  32  33  35 0
 6-311+G(2d,p)
 ****
 37  38 0
 6-311+G(2d,p)
 ****
 1  2  3  4  5  17  18  19  20  21  22  23  24  25 0
 3-21G
 ****
 27  28  29  34  36  39  40  41  42  43  44  45  46 0
 3-21G
 ****


