%nproc=1
%NoSave
%Mem=1900MB
#P OB98/GEN NMR

erre ene a

0 1
  C       99.868     433.731      27.501
  O       99.624     432.623      26.658
  H      100.392     433.384      28.397
  H       98.924     434.195      27.802
  H      100.494     434.466      26.989
  P       98.767     432.914      25.330
  C       96.734     431.929      26.637
  O       97.524     431.904      25.458
  C       96.158     430.544      26.904
  O       95.361     430.546      28.107
  C       95.234     430.027      25.802
  O       95.941     429.528      24.680
  C       94.508     428.928      26.552
  O       95.370     427.782      26.683
  C       94.272     429.603      27.920
  N       92.979     430.286      28.009
  C       91.967     429.629      28.719
  O       92.173     428.529      29.230
  N       90.731     430.222      28.813
  C       90.522     431.376      28.252
  N       89.273     431.909      28.362
  C       91.563     432.108      27.510
  C       92.749     431.514      27.428
  O       99.639     432.246      24.164
  O       98.398     434.339      25.086
  H       95.461     427.393      25.794
  H       99.133     432.263      23.316
  H       91.339     433.063      27.052
  H       93.564     431.995      26.893
  H       94.333     428.868      28.737
  H       93.602     428.592      26.045
  H       94.505     430.788      25.503
  H       97.002     429.855      27.071
  H       88.564     431.356      28.825
  H       95.924     432.655      26.495
  H       88.972     432.703      27.814
  H       97.344     432.240      27.491
  P       96.148     430.521      23.431
  C       94.787     428.889      21.935
  O       95.982     429.642      22.099
  O       97.716     430.829      23.474
  O       95.328     431.775      23.476
  H       97.903     431.760      23.249
  H       94.824     428.360      21.006
  H       93.946     429.550      21.936
  H       94.692     428.191      22.740

 6  7  8  9  10  11  12  13  14  15  16  26  30  31  32  33  35 0
 6-311+G(2d,p)
 ****
 37  38 0
 6-311+G(2d,p)
 ****
 1  2  3  4  5  17  18  19  20  21  22  23  24  25 0
 3-21G
 ****
 27  28  29  34  36  39  40  41  42  43  44  45  46 0
 3-21G
 ****


