%nproc=1
%NoSave
%Mem=1900MB
#P OB98/GEN NMR

erre ene a

0 1
  C      -88.344     -65.542     -92.523
  O      -88.058     -64.502     -91.592
  P      -88.599     -64.649     -90.090
  C      -90.822     -63.948     -88.834
  O      -90.149     -64.270     -90.031
  C      -91.384     -62.519     -88.936
  O      -90.323     -61.581     -89.225
  C      -92.432     -62.360     -90.035
  O      -93.731     -62.698     -89.584
  C      -92.278     -60.897     -90.405
  O      -92.930     -60.063     -89.428
  C      -90.743     -60.724     -90.325
  N      -89.941     -61.064     -91.520
  C      -90.144     -60.368     -92.711
  O      -90.966     -59.468     -92.855
  N      -89.347     -60.734     -93.764
  C      -88.275     -61.579     -93.713
  O      -87.558     -61.825     -94.674
  C      -88.011     -62.174     -92.397
  C      -88.843     -61.905     -91.386
  O      -87.883     -63.452     -89.309
  O      -88.317     -65.978     -89.460
  H      -93.769     -60.497     -89.193
  H      -87.275     -63.805     -88.633
  H      -89.527     -60.293     -94.654
  H      -87.144     -62.814     -92.296
  H      -88.656     -62.341     -90.408
  H      -90.485     -59.692     -90.053
  H      -92.757     -60.679     -91.358
  H      -92.155     -62.958     -90.910
  H      -91.820     -62.248     -87.965
  H      -90.149     -64.023     -87.975
  H      -91.633     -64.663     -88.665
  P      -94.500     -63.946     -90.227
  C      -95.112     -64.665     -92.616
  O      -94.616     -63.620     -91.796
  O      -95.768     -64.352     -89.555
  O      -93.402     -65.119     -90.199
  H      -93.521     -65.688     -89.405
  H      -95.293     -64.268     -93.617
  H      -96.052     -65.054     -92.213
  H      -94.372     -65.468     -92.678
  H      -87.918     -65.297     -93.473
  H      -89.404     -65.649     -92.624
  H      -87.925     -66.461     -92.171

 3  4  5  6  7  8  9  10  11  12  13  23  28  29  30  31  32 0
 6-311+G(2d,p)
 ****
 33  34 0
 6-311+G(2d,p)
 ****
 1  2  14  15  16  17  18  19  20  21  22  24  25  26  27 0
 3-21G
 ****
 35  36  37  38  39  40  41  42  43  44  45 0
 3-21G
 ****


