%nproc=1
%NoSave
%Mem=1900MB
#P OB98/GEN NMR

erre ene a

0 1
  C       47.716    -269.234    -120.233
  O       47.534    -267.854    -119.914
  P       47.858    -267.348    -118.427
  C       45.574    -266.290    -117.921
  O       46.962    -266.055    -118.110
  C       44.699    -265.309    -118.720
  O       45.074    -263.931    -118.426
  C       44.782    -265.484    -120.242
  O       43.479    -265.203    -120.765
  C       45.767    -264.401    -120.645
  O       45.697    -264.089    -122.025
  C       45.352    -263.285    -119.682
  N       46.378    -262.260    -119.543
  C       46.278    -261.139    -120.370
  O       45.410    -261.094    -121.247
  N       47.181    -260.117    -120.203
  C       48.181    -260.273    -119.387
  N       49.040    -259.230    -119.236
  C       48.417    -261.517    -118.632
  C       47.474    -262.449    -118.737
  O       49.311    -267.203    -118.100
  O       47.177    -268.478    -117.512
  H       45.578    -264.920    -122.536
  H       47.722    -268.605    -116.707
  H       49.310    -261.633    -118.033
  H       47.549    -263.391    -118.217
  H       44.424    -262.806    -120.019
  H       46.791    -264.739    -120.427
  H       45.081    -266.491    -120.547
  H       43.661    -265.440    -118.391
  H       48.882    -258.390    -119.780
  H       45.334    -266.200    -116.858
  H       49.816    -259.256    -118.585
  H       45.345    -267.326    -118.193
  P       42.457    -266.418    -120.997
  C       41.878    -265.962    -123.494
  O       41.433    -265.985    -122.153
  O       41.531    -266.322    -119.684
  O       43.060    -267.778    -121.098
  H       41.144    -267.201    -119.509
  H       41.007    -265.927    -124.151
  H       42.459    -266.856    -123.735
  H       42.490    -265.070    -123.665
  H       47.457    -269.400    -121.258
  H       47.088    -269.831    -119.605
  H       48.739    -269.505    -120.076

 3  4  5  6  7  8  9  10  11  12  13  23  27  28  29  30  32 0
 6-311+G(2d,p)
 ****
 34  35 0
 6-311+G(2d,p)
 ****
 1  2  14  15  16  17  18  19  20  21  22  24  25  26 0
 3-21G
 ****
 31  33  36  37  38  39  40  41  42  43  44  45  46 0
 3-21G
 ****


