%nproc=1
%NoSave
%Mem=1900MB
#P OB98/GEN NMR

erre ene a

0 1
  C     -864.946     302.408    -975.186
  O     -864.634     303.780    -975.164
  H     -865.236     302.090    -974.170
  H     -864.093     301.806    -975.498
  H     -865.801     302.217    -975.847
  P     -864.155     304.421    -976.555
  C     -862.139     305.643    -975.462
  O     -862.574     304.628    -976.391
  C     -860.645     305.877    -975.632
  O     -859.893     304.713    -975.206
  C     -860.199     306.186    -977.039
  O     -860.388     307.574    -977.340
  C     -858.715     305.829    -976.970
  O     -857.976     306.944    -976.379
  C     -858.699     304.621    -976.016
  N     -856.237     301.654    -979.413
  C     -856.122     302.987    -979.124
  N     -856.848     303.711    -978.241
  C     -857.770     302.941    -977.629
  C     -857.993     301.582    -977.801
  C     -857.190     300.933    -978.751
  N     -857.302     299.598    -979.050
  N     -859.019     301.154    -977.005
  C     -859.353     302.188    -976.298
  N     -858.656     303.325    -976.656
  O     -864.930     305.612    -977.025
  O     -864.239     303.149    -977.522
  H     -858.415     307.136    -975.518
  H     -863.905     302.355    -977.060
  H     -855.368     303.525    -979.671
  H     -860.098     302.201    -975.490
  H     -857.841     304.660    -975.328
  H     -858.254     305.662    -977.945
  H     -860.670     305.526    -977.778
  H     -860.362     306.720    -974.944
  H     -862.355     305.333    -974.432
  H     -856.808     299.264    -979.846
  H     -858.086     299.084    -978.658
  H     -862.700     306.546    -975.689
  P     -860.503     308.073    -978.858
  C     -858.467     309.635    -978.573
  O     -859.039     308.523    -979.278
  O     -861.576     309.110    -979.087
  O     -860.762     306.739    -979.710
  H     -861.115     306.962    -980.598
  H     -857.486     309.831    -978.952
  H     -858.406     309.403    -977.530
  H     -859.082     310.499    -978.711

 6  7  8  9  10  11  12  13  14  15  25  28  32  33  34  35 0
 6-311+G(2d,p)
 ****
 36  39  40 0
 6-311+G(2d,p)
 ****
 1  2  3  4  5  16  17  18  19  20  21  22  23  24 0
 3-21G
 ****
 26  27  29  30  31  37  38  41  42  43  44  45  46  47 0
 3-21G
 ****
 48 0
 3-21G
 ****


