%nproc=1
%NoSave
%Mem=1900MB
#P OB98/GEN NMR

erre ene a

0 1
  C      831.732    -688.122     237.767
  O      831.444    -687.439     236.565
  H      832.757    -688.500     237.747
  H      831.648    -687.413     238.603
  H      831.027    -688.937     237.938
  P      831.344    -688.339     235.237
  C      833.824    -688.275     234.425
  O      832.790    -689.030     235.070
  C      834.776    -689.219     233.680
  O      834.001    -690.000     232.725
  C      835.869    -688.478     232.901
  O      837.098    -689.216     233.000
  C      835.371    -688.505     231.461
  O      836.418    -688.399     230.523
  C      834.613    -689.831     231.433
  N      832.754    -692.582     227.550
  C      833.685    -692.855     228.491
  N      834.126    -692.073     229.494
  C      833.441    -690.914     229.511
  C      832.457    -690.496     228.622
  C      832.122    -691.381     227.584
  N      831.206    -691.093     226.622
  N      832.043    -689.217     228.957
  C      832.744    -688.864     230.005
  N      833.622    -689.866     230.387
  O      831.312    -687.232     234.073
  O      830.179    -689.265     235.161
  H      837.188    -688.911     230.857
  H      830.419    -686.864     234.005
  H      834.150    -693.845     228.401
  H      832.687    -687.930     230.536
  H      835.299    -690.691     231.262
  H      834.670    -687.674     231.301
  H      836.035    -687.462     233.257
  H      835.208    -689.925     234.401
  H      834.378    -687.721     235.194
  H      831.062    -691.761     225.886
  H      830.769    -690.174     226.608
  H      833.374    -687.565     233.723
  P      837.937    -689.043     234.354
  C      839.112    -686.807     233.693
  O      838.218    -687.484     234.570
  O      839.383    -689.627     233.946
  O      837.362    -689.760     235.519
  H      839.681    -690.253     234.632
  H      839.183    -685.779     233.980
  H      838.746    -686.873     232.690
  H      840.079    -687.260     233.750

 6  7  8  9  10  11  12  13  14  15  25  28  32  33  34  35 0
 6-311+G(2d,p)
 ****
 36  39  40 0
 6-311+G(2d,p)
 ****
 1  2  3  4  5  16  17  18  19  20  21  22  23  24 0
 3-21G
 ****
 26  27  29  30  31  37  38  41  42  43  44  45  46  47 0
 3-21G
 ****
 48 0
 3-21G
 ****


