%nproc=1
%NoSave
%Mem=1900MB
#P OB98/GEN NMR

erre ene a

0 1
  C     -171.779     339.477      52.397
  O     -170.794     338.858      53.209
  P     -170.391     339.486      54.624
  C     -167.939     340.086      54.113
  O     -168.815     339.212      54.810
  C     -166.482     339.648      54.292
  O     -166.119     339.807      55.687
  C     -166.234     338.197      53.912
  O     -164.936     338.086      53.319
  C     -166.213     337.462      55.241
  O     -165.431     336.252      55.158
  C     -165.644     338.535      56.175
  N     -164.279     338.765      61.116
  C     -163.594     339.027      59.986
  N     -164.010     338.921      58.706
  C     -165.305     338.543      58.654
  C     -166.129     338.248      59.728
  C     -165.569     338.366      61.015
  N     -166.274     338.112      62.169
  N     -167.388     337.869      59.287
  C     -167.320     337.958      57.976
  N     -166.081     338.375      57.543
  O     -171.233     339.057      55.774
  O     -170.455     341.072      54.397
  H     -165.455     335.829      56.041
  H     -170.809     341.515      55.190
  H     -162.567     339.362      60.123
  H     -168.126     337.730      57.294
  H     -164.548     338.552      56.156
  H     -167.232     337.180      55.523
  H     -166.991     337.796      53.231
  H     -165.844     340.325      53.706
  H     -168.066     341.100      54.512
  H     -165.828     338.342      63.045
  H     -167.278     337.988      62.098
  H     -168.211     340.103      53.050
  P     -164.916     337.854      51.722
  C     -163.406     335.730      51.908
  O     -163.541     337.056      51.449
  O     -165.124     339.123      50.962
  O     -166.074     336.761      51.547
  H     -166.211     336.251      52.368
  H     -162.400     335.376      51.658
  H     -164.135     335.081      51.403
  H     -163.551     335.678      52.991
  H     -171.907     338.911      51.498
  H     -171.466     340.471      52.152
  H     -172.707     339.516      52.929

 3  4  5  6  7  8  9  10  11  12  22  25  29  30  31  32 0
 6-311+G(2d,p)
 ****
 33  36  37 0
 6-311+G(2d,p)
 ****
 1  2  13  14  15  16  17  18  19  20  21  23  24  26 0
 3-21G
 ****
 27  28  34  35  38  39  40  41  42  43  44  45  46  47  48 0
 3-21G
 ****


