%nproc=1
%NoSave
%Mem=1900MB
#P OB98/GEN NMR

erre ene a

0 1
  C     -102.147    -366.987    -136.941
  O     -100.888    -366.343    -137.154
  P      -99.818    -367.084    -138.089
  C      -98.011    -367.457    -136.251
  O      -98.909    -368.051    -137.165
  C      -96.770    -368.330    -136.009
  O      -95.963    -368.400    -137.226
  C      -95.844    -367.816    -134.905
  O      -95.193    -368.933    -134.306
  C      -94.821    -367.008    -135.682
  O      -93.631    -366.787    -134.913
  C      -94.650    -367.892    -136.920
  N      -90.398    -366.155    -139.009
  C      -90.597    -366.834    -137.824
  N      -89.495    -367.115    -137.085
  N      -91.773    -367.195    -137.374
  C      -92.779    -366.868    -138.235
  C      -92.715    -366.203    -139.423
  C      -91.419    -365.778    -139.888
  O      -91.176    -365.162    -140.916
  N      -93.958    -366.029    -139.985
  C      -94.773    -366.616    -139.127
  N      -94.117    -367.150    -138.063
  O      -98.801    -365.898    -138.495
  O     -100.402    -367.723    -139.304
  H      -93.186    -367.660    -134.819
  H      -98.926    -365.654    -139.418
  H      -89.474    -365.881    -139.284
  H      -95.860    -366.653    -139.213
  H      -93.994    -368.739    -136.736
  H      -95.235    -366.026    -135.950
  H      -88.548    -366.910    -137.398
  H      -96.341    -367.229    -134.126
  H      -89.613    -367.642    -136.227
  H      -97.105    -369.353    -135.794
  H      -98.519    -367.289    -135.275
  H      -97.740    -366.460    -136.607
  P      -95.835    -369.507    -132.962
  C      -94.622    -368.287    -131.011
  O      -95.753    -368.332    -131.876
  O      -94.719    -370.570    -132.444
  O      -97.161    -370.146    -133.132
  H      -95.140    -371.252    -131.890
  H      -93.939    -367.486    -131.358
  H      -94.096    -369.235    -130.985
  H      -94.982    -368.028    -130.001
  H     -102.754    -366.381    -136.302
  H     -101.987    -367.940    -136.482
  H     -102.642    -367.122    -137.880

 3  4  5  6  7  8  9  10  11  12  23  26  30  31 0
 6-311+G(2d,p)
 ****
 33  35  36  37  38 0
 6-311+G(2d,p)
 ****
 1  2  13  14  15  16  17  18  19  20  21  22  24  25 0
 3-21G
 ****
 27  28  29  32  34  39  40  41  42  43  44  45  46  47  48  49 0
 3-21G
 ****


