%nproc=1
%NoSave
%Mem=1900MB
#P OB98/GEN NMR

erre ene a

0 1
  C      -82.192      76.430    -167.783
  O      -81.107      75.679    -168.341
  P      -80.095      74.947    -167.335
  C      -80.003      72.700    -166.022
  O      -80.690      73.505    -166.970
  C      -80.766      71.397    -165.763
  O      -82.041      71.635    -165.132
  C      -81.083      70.612    -167.028
  O      -79.972      69.839    -167.453
  C      -82.207      69.713    -166.543
  O      -81.649      68.591    -165.819
  C      -82.974      70.632    -165.587
  N      -87.756      70.002    -167.315
  C      -86.864      69.136    -166.789
  N      -85.608      69.368    -166.367
  C      -85.292      70.669    -166.522
  C      -86.094      71.675    -167.045
  C      -87.385      71.300    -167.455
  N      -88.290      72.192    -167.986
  N      -85.429      72.881    -167.055
  C      -84.248      72.612    -166.529
  N      -84.113      71.291    -166.203
  O      -80.285      75.773    -165.975
  O      -78.678      74.960    -167.791
  H      -81.201      68.023    -166.475
  H      -79.437      75.822    -165.496
  H      -87.215      68.104    -166.691
  H      -83.460      73.343    -166.366
  H      -83.345      70.098    -164.700
  H      -82.801      69.297    -167.362
  H      -81.453      71.280    -167.825
  H      -80.158      70.777    -165.086
  H      -79.871      73.251    -165.089
  H      -89.206      71.848    -168.234
  H      -88.025      73.161    -168.069
  H      -78.989      72.492    -166.397
  P      -78.870      70.569    -168.367
  C      -76.799      72.059    -167.846
  O      -77.950      71.403    -167.346
  O      -79.725      71.689    -169.128
  O      -78.153      69.664    -169.307
  H      -79.326      71.873    -170.007
  H      -76.477      72.805    -167.121
  H      -77.015      72.561    -168.798
  H      -75.994      71.330    -167.991
  H      -82.775      76.856    -168.573
  H      -81.804      77.212    -167.165
  H      -82.808      75.783    -167.194

 3  4  5  6  7  8  9  10  11  12  22  25  29  30  31  32 0
 6-311+G(2d,p)
 ****
 33  36  37 0
 6-311+G(2d,p)
 ****
 1  2  13  14  15  16  17  18  19  20  21  23  24  26 0
 3-21G
 ****
 27  28  34  35  38  39  40  41  42  43  44  45  46  47  48 0
 3-21G
 ****


