%nproc=1
%NoSave
%Mem=1900MB
#P OB98/GEN NMR

erre ene a

0 1
  C      -19.330      26.480      37.591
  O      -20.414      26.539      36.684
  H      -18.727      25.600      37.360
  H      -19.701      26.396      38.616
  H      -18.706      27.373      37.494
  P      -21.417      27.781      36.842
  C      -20.014      29.829      36.070
  O      -20.989      28.852      35.729
  C      -19.363      30.370      34.801
  O      -18.696      29.296      34.098
  C      -20.352      30.954      33.802
  O      -20.774      32.258      34.159
  C      -19.536      30.910      32.521
  O      -18.668      32.045      32.414
  C      -18.716      29.626      32.690
  N      -18.379      27.044      28.301
  C      -17.635      28.046      28.818
  N      -17.783      28.674      30.003
  C      -18.808      28.146      30.692
  C      -19.652      27.122      30.297
  C      -19.404      26.557      29.035
  N      -20.176      25.554      28.498
  N      -20.613      26.886      31.259
  C      -20.350      27.745      32.222
  N      -19.267      28.525      31.926
  O      -20.946      28.452      38.217
  O      -22.865      27.426      36.863
  H      -18.002      31.948      33.122
  H      -21.545      28.175      38.936
  H      -16.819      28.397      28.192
  H      -20.915      27.846      33.141
  H      -17.675      29.754      32.371
  H      -20.186      30.905      31.646
  H      -21.216      30.287      33.693
  H      -18.608      31.114      35.084
  H      -19.246      29.369      36.701
  H      -20.499      30.635      36.629
  H      -19.983      25.243      27.560
  H      -21.012      25.263      28.988
  P      -22.239      32.420      34.790
  C      -22.446      31.057      37.003
  O      -22.089      32.283      36.379
  O      -22.993      31.076      34.361
  O      -22.976      33.637      34.342
  H      -23.933      31.266      34.181
  H      -22.287      31.134      38.058
  H      -21.842      30.267      36.608
  H      -23.478      30.847      36.812

 6  7  8  9  10  11  12  13  14  15  25  28  32  33  34  35 0
 6-311+G(2d,p)
 ****
 36  37  40 0
 6-311+G(2d,p)
 ****
 1  2  3  4  5  16  17  18  19  20  21  22  23  24 0
 3-21G
 ****
 26  27  29  30  31  38  39 41  42  43  44  45  46  47  48 0
 3-21G
 ****


