%nproc=1
%NoSave
%Mem=1900MB
#P OB98/GEN NMR

erre ene a

0 1
  C      471.038    -403.809    -143.868
  O      470.556    -402.524    -144.213
  H      472.131    -403.788    -143.893
  H      470.684    -404.547    -144.591
  H      470.711    -404.085    -142.861
  P      468.972    -402.288    -144.065
  C      468.220    -402.357    -146.582
  O      468.306    -403.015    -145.329
  C      467.120    -402.979    -147.444
  O      467.384    -404.402    -147.574
  C      465.713    -402.813    -146.864
  O      464.795    -402.638    -147.943
  C      465.452    -404.155    -146.193
  O      464.057    -404.418    -146.050
  C      466.203    -405.113    -147.131
  N      466.545    -406.372    -146.480
  C      466.154    -407.542    -147.133
  O      465.531    -407.486    -148.194
  N      466.427    -408.757    -146.550
  C      466.987    -408.794    -145.381
  N      467.214    -410.026    -144.842
  C      467.386    -407.584    -144.637
  C      467.143    -406.419    -145.244
  O      468.844    -400.731    -144.409
  O      468.414    -402.675    -142.739
  H      463.689    -403.797    -145.385
  H      469.365    -400.461    -145.185
  H      467.842    -407.664    -143.659
  H      467.409    -405.478    -144.770
  H      465.598    -405.335    -148.020
  H      465.902    -404.168    -145.194
  H      465.637    -401.971    -146.175
  H      467.183    -402.551    -148.451
  H      466.904    -410.828    -145.380
  H      469.175    -402.422    -147.109
  H      467.594    -410.175    -143.921
  H      468.006    -401.302    -146.392
  P      464.253    -401.172    -148.285
  C      461.925    -401.516    -147.213
  O      463.129    -400.757    -147.223
  O      463.895    -400.933    -149.718
  O      465.492    -400.237    -147.864
  H      465.581    -399.535    -148.545
  H      461.268    -401.133    -146.460
  H      462.151    -402.540    -147.001
  H      461.451    -401.446    -148.170

 6  7  8  9  10  11  12  13  14  15  16  26  30  31  32  33  35 0
 6-311+G(2d,p)
 ****
 37  38 0
 6-311+G(2d,p)
 ****
 1  2  3  4  5  17  18  19  20  21  22  23  24  25 0
 3-21G
 ****
 27  28  29  34  36  39  40  41  42  43  44  45  46 0
 3-21G
 ****


