%nproc=1
%NoSave
%Mem=1900MB
#P OB98/GEN NMR

erre ene a

0 1
  C     -358.004     156.239      74.497
  O     -357.119     156.687      75.522
  P     -357.593     156.504      77.041
  C     -357.574     159.113      77.320
  O     -358.253     157.887      77.521
  C     -357.116     159.716      78.665
  O     -358.289     160.186      79.377
  C     -356.422     158.745      79.613
  O     -355.696     159.497      80.586
  C     -357.601     158.068      80.275
  O     -357.224     157.416      81.486
  C     -358.612     159.229      80.425
  N     -360.024     158.804      80.307
  C     -360.774     158.652      81.471
  O     -360.325     158.850      82.603
  N     -362.059     158.221      81.313
  C     -362.678     157.973      80.123
  O     -363.806     157.501      80.041
  C     -361.894     158.279      78.922
  C     -360.620     158.662      79.064
  O     -356.219     156.419      77.856
  O     -358.455     155.303      77.265
  H     -356.668     158.057      81.984
  H     -356.047     155.498      78.130
  H     -362.590     158.046      82.151
  H     -362.373     158.156      77.957
  H     -360.018     158.874      78.182
  H     -358.499     159.725      81.396
  H     -358.009     157.299      79.609
  H     -355.759     158.028      79.125
  H     -356.480     160.589      78.466
  H     -358.221     159.816      76.790
  H     -356.698     158.950      76.679
  P     -354.186     159.918      80.238
  C     -353.295     158.477      82.175
  O     -353.250     158.734      80.782
  O     -353.781     161.299      80.638
  O     -354.118     159.717      78.652
  H     -353.363     160.220      78.287
  H     -353.076     157.420      82.345
  H     -354.281     158.712      82.593
  H     -352.535     159.084      82.677
  H     -357.563     156.422      73.540
  H     -358.931     156.769      74.570
  H     -358.182     155.190      74.613

 3  4  5  6  7  8  9  10  11  12  13  23  28  29  30  31  32 0
 6-311+G(2d,p)
 ****
 33  34 0
 6-311+G(2d,p)
 ****
 1  2  14  15  16  17  18  19  20  21  22  24  25  26  27 0
 3-21G
 ****
 35  36  37  38  39  40  41  42  43  44  45 0
 3-21G
 ****


