%nproc=1
%NoSave
%Mem=1900MB
#P OB98/GEN NMR

erre ene a

0 1
  C      683.442    1367.085     221.712
  O      683.644    1368.461     221.964
  H      682.783    1366.680     222.484
  H      684.391    1366.559     221.747
  H      682.973    1366.937     220.733
  P      684.381    1369.321     220.827
  C      681.977    1369.702     219.923
  O      683.346    1369.464     219.616
  C      681.352    1370.584     218.841
  O      682.015    1371.885     218.865
  C      681.481    1370.031     217.418
  O      680.299    1370.378     216.691
  C      682.651    1370.817     216.845
  O      682.671    1370.885     215.439
  C      682.449    1372.176     217.514
  N      683.653    1372.994     217.515
  C      683.989    1373.640     216.324
  O      683.298    1373.641     215.316
  N      685.186    1374.310     216.337
  C      686.071    1374.378     217.378
  O      687.135    1374.978     217.316
  C      685.655    1373.670     218.603
  C      684.492    1373.017     218.614
  O      685.479    1368.296     220.267
  O      684.981    1370.607     221.289
  H      686.308    1368.380     220.770
  H      682.873    1369.988     215.091
  H      685.440    1374.788     215.485
  H      686.345    1373.691     219.445
  H      684.173    1372.470     219.492
  H      681.634    1372.722     217.031
  H      683.594    1370.362     217.184
  H      681.652    1368.952     217.370
  H      680.295    1370.772     219.098
  H      681.902    1370.211     220.876
  H      681.456    1368.738     219.973
  P      679.139    1369.264     216.620
  C      677.204    1370.930     217.221
  O      677.982    1369.807     217.592
  O      679.804    1368.057     217.423
  O      678.723    1368.945     215.220
  H      680.364    1368.355     218.157
  H      676.490    1371.139     217.990
  H      676.691    1370.722     216.306
  H      677.843    1371.778     217.087

 6  7  8  9  10  11  12  13  14  15  16  27  31  32  33  34  35 0
 6-311+G(2d,p)
 ****
 36  37 0
 6-311+G(2d,p)
 ****
 1  2  3  4  5  17  18  19  20  21  22  23  24  25 0
 3-21G
 ****
 26  28  29  30  38  39  40  41  42  43  44  45 0
 3-21G
 ****


