%nproc=1
%NoSave
%Mem=1900MB
#P OB98/GEN NMR

erre ene a

0 1
  C     -252.618    -330.673    -124.299
  O     -252.745    -331.712    -125.247
  H     -253.068    -329.766    -124.708
  H     -251.560    -330.481    -124.107
  H     -253.126    -330.931    -123.366
  P     -252.434    -333.202    -124.745
  C     -253.951    -334.393    -126.474
  O     -252.628    -334.176    -126.008
  C     -254.250    -333.482    -127.667
  O     -253.177    -333.616    -128.635
  C     -255.567    -333.812    -128.381
  O     -256.191    -332.591    -128.786
  C     -255.118    -334.587    -129.607
  O     -256.056    -334.508    -130.680
  C     -253.776    -333.930    -129.906
  N     -252.938    -335.782    -134.517
  C     -253.844    -334.832    -134.086
  N     -254.656    -334.299    -135.025
  N     -253.947    -334.439    -132.843
  C     -253.047    -335.031    -132.021
  C     -252.106    -335.986    -132.323
  C     -252.023    -336.435    -133.696
  O     -251.258    -337.287    -134.133
  N     -251.405    -336.362    -131.205
  C     -251.922    -335.635    -130.232
  N     -252.916    -334.808    -130.679
  O     -253.689    -333.541    -123.813
  O     -251.146    -333.374    -124.009
  H     -255.633    -334.907    -131.470
  H     -253.393    -333.663    -122.891
  H     -252.912    -336.057    -135.483
  H     -251.622    -335.675    -129.194
  H     -253.884    -332.998    -130.474
  H     -254.987    -335.644    -129.348
  H     -254.599    -334.520    -136.007
  H     -256.259    -334.386    -127.763
  H     -255.303    -333.574    -134.741
  H     -254.240    -332.442    -127.322
  H     -254.653    -334.173    -125.665
  H     -254.063    -335.441    -126.771
  P     -257.378    -332.039    -127.856
  C     -257.186    -329.464    -128.051
  O     -257.878    -330.635    -128.456
  O     -256.622    -331.624    -126.508
  O     -258.454    -333.039    -127.593
  H     -256.834    -332.260    -125.800
  H     -257.623    -328.610    -128.524
  H     -256.157    -329.542    -128.335
  H     -257.256    -329.358    -126.989

 6  7  8  9  10  11  12  13  14  15  26  29  33  34 0
 6-311+G(2d,p)
 ****
 36  38  39  40  41 0
 6-311+G(2d,p)
 ****
 1  2  3  4  5  16  17  18  19  20  21  22  23  24  25 0
 3-21G
 ****
 27  28  30  31  32  35  37  42  43  44  45  46  47 0
 3-21G
 ****
 48  49 0
 3-21G
 ****


