%nproc=1
%NoSave
%Mem=1900MB
#P OB98/GEN NMR

erre ene a

0 1
  C       47.947     324.534     355.595
  O       48.653     325.454     356.415
  P       47.792     326.451     357.337
  C       49.665     328.250     357.178
  O       48.289     327.928     356.957
  C       49.988     329.630     356.616
  O       49.776     329.655     355.193
  C       49.133     330.760     357.182
  O       49.600     331.216     358.438
  C       49.335     331.830     356.118
  O       50.599     332.481     356.316
  C       49.361     331.002     354.828
  N       46.982     331.444     350.327
  C       48.265     331.632     350.680
  N       48.824     331.504     351.908
  C       47.889     331.183     352.824
  C       46.532     331.002     352.615
  C       46.076     331.123     351.290
  N       44.765     330.911     350.916
  N       45.890     330.681     353.789
  C       46.850     330.659     354.696
  N       48.075     330.950     354.158
  O       48.406     326.215     358.793
  O       46.321     326.225     357.303
  H       50.567     332.911     357.194
  H       47.754     326.467     359.479
  H       48.942     331.918     349.883
  H       46.706     330.439     355.748
  H       50.095     331.379     354.106
  H       48.565     332.610     356.148
  H       48.070     330.474     357.215
  H       51.052     329.827     356.803
  H       50.289     327.504     356.672
  H       44.561     330.843     349.935
  H       44.148     330.476     351.594
  H       49.873     328.213     358.250
  P       48.525     331.298     359.632
  C       50.294     332.790     360.802
  O       48.930     332.586     360.479
  O       48.927     330.062     360.570
  O       47.101     331.219     359.174
  H       48.154     329.754     361.076
  H       50.438     333.835     361.097
  H       50.941     332.579     359.942
  H       50.584     332.146     361.633
  H       48.645     323.940     355.042
  H       47.319     325.071     354.915
  H       47.345     323.897     356.210

 3  4  5  6  7  8  9  10  11  12  22  25  29  30  31  32 0
 6-311+G(2d,p)
 ****
 33  36  37 0
 6-311+G(2d,p)
 ****
 1  2  13  14  15  16  17  18  19  20  21  23  24  26 0
 3-21G
 ****
 27  28  34  35  38  39  40  41  42  43  44  45  46  47  48 0
 3-21G
 ****


