%nproc=1
%NoSave
%Mem=1900MB
#P OB98/GEN NMR

erre ene a

0 1
  C     -639.309     288.993    -890.462
  O     -638.702     289.612    -891.583
  H     -638.848     289.389    -889.549
  H     -639.139     287.911    -890.494
  H     -640.379     289.200    -890.442
  P     -639.347     289.295    -893.015
  C     -641.387     290.922    -892.659
  O     -640.920     289.598    -892.901
  C     -642.263     291.381    -893.821
  O     -643.460     290.582    -893.924
  C     -642.800     292.803    -893.663
  O     -641.810     293.783    -893.833
  C     -643.873     292.812    -894.746
  O     -643.287     293.016    -896.042
  C     -644.449     291.379    -894.617
  N     -645.734     291.361    -893.932
  C     -646.871     291.398    -894.760
  O     -646.748     291.443    -895.977
  N     -648.105     291.420    -894.162
  C     -648.222     291.390    -892.868
  N     -649.469     291.416    -892.346
  C     -647.049     291.315    -891.973
  C     -645.852     291.309    -892.557
  O     -639.291     287.701    -893.080
  O     -638.694     289.986    -894.174
  H     -642.663     293.747    -895.950
  H     -639.704     287.267    -892.315
  H     -647.181     291.276    -890.897
  H     -644.944     291.263    -891.966
  H     -644.589     290.931    -895.609
  H     -644.603     293.619    -894.597
  H     -643.312     292.902    -892.693
  H     -641.693     291.277    -894.758
  H     -650.246     291.484    -893.004
  H     -640.539     291.614    -892.517
  H     -649.673     291.430    -891.355
  H     -641.956     290.912    -891.729
  P     -642.125     295.333    -893.500
  C     -640.697     295.468    -891.353
  O     -642.023     295.482    -891.900
  O     -643.388     295.856    -894.095
  O     -640.802     296.085    -893.992
  H     -639.979     295.802    -893.555
  H     -640.749     295.573    -890.289
  H     -640.133     296.279    -891.764
  H     -640.220     294.542    -891.597

 6  7  8  9  10  11  12  13  14  15  16  26  30  31  32  33  35 0
 6-311+G(2d,p)
 ****
 37  38 0
 6-311+G(2d,p)
 ****
 1  2  3  4  5  17  18  19  20  21  22  23  24  25 0
 3-21G
 ****
 27  28  29  34  36  39  40  41  42  43  44  45  46 0
 3-21G
 ****


