%nproc=1
%NoSave
%Mem=1900MB
#P OB98/GEN NMR

erre ene a

0 1
  C     -106.077     -27.346       3.211
  O     -106.188     -28.743       3.397
  H     -105.360     -26.952       3.936
  H     -107.045     -26.870       3.383
  H     -105.723     -27.121       2.203
  P     -107.130     -29.538       2.369
  C     -106.855     -30.466      -0.038
  O     -106.220     -29.870       1.085
  C     -106.041     -31.652      -0.551
  O     -104.660     -31.226      -0.749
  C     -106.016     -32.861       0.400
  O     -105.993     -34.052      -0.398
  C     -104.665     -32.724       1.086
  O     -104.203     -33.956       1.634
  C     -103.826     -32.191      -0.074
  N      -98.827     -32.763      -0.096
  C      -99.819     -33.515      -0.697
  N      -99.420     -34.588      -1.414
  N     -101.093     -33.241      -0.602
  C     -101.347     -32.121       0.120
  C     -100.457     -31.295       0.768
  C      -99.050     -31.628       0.677
  O      -98.127     -31.011       1.202
  N     -101.113     -30.278       1.417
  C     -102.391     -30.490       1.160
  N     -102.585     -31.595       0.378
  O     -108.120     -28.394       1.846
  O     -107.869     -30.699       2.944
  H     -103.676     -34.412       0.946
  H     -108.937     -28.385       2.379
  H      -97.861     -33.027      -0.190
  H     -103.212     -29.880       1.517
  H     -103.559     -32.976      -0.792
  H     -104.726     -31.989       1.898
  H      -98.455     -34.832      -1.571
  H     -106.854     -32.901       1.102
  H     -100.130     -35.125      -1.900
  H     -106.424     -31.938      -1.536
  H     -106.942     -29.718      -0.834
  H     -107.857     -30.798       0.251
  P     -107.393     -34.715      -0.802
  C     -109.120     -34.420      -2.726
  O     -107.805     -34.168      -2.252
  O     -108.433     -33.970       0.166
  O     -107.444     -36.197      -0.628
  H     -109.197     -34.548       0.338
  H     -109.236     -33.994      -3.700
  H     -109.830     -33.980      -2.058
  H     -109.284     -35.476      -2.777

 6  7  8  9  10  11  12  13  14  15  26  29  33  34 0
 6-311+G(2d,p)
 ****
 36  38  39  40  41 0
 6-311+G(2d,p)
 ****
 1  2  3  4  5  16  17  18  19  20  21  22  23  24  25 0
 3-21G
 ****
 27  28  30  31  32  35  37  42  43  44  45  46  47 0
 3-21G
 ****
 48  49 0
 3-21G
 ****


