%nproc=1
%NoSave
%Mem=1900MB
#P OB98/GEN NMR

erre ene a

0 1
  C       92.543     694.915    -630.991
  O       92.082     696.154    -631.502
  P       92.711     697.537    -630.985
  C       92.985     698.729    -633.248
  O       92.253     698.684    -632.025
  C       92.550     699.903    -634.106
  O       91.248     699.638    -634.695
  C       92.410     701.252    -633.336
  O       92.814     702.291    -634.262
  C       90.927     701.341    -633.052
  O       90.485     702.669    -632.789
  C       90.375     700.749    -634.366
  N       85.752     700.467    -636.597
  C       86.928     701.059    -636.989
  N       88.110     701.103    -636.312
  C       88.022     700.447    -635.133
  C       86.902     699.827    -634.605
  C       85.745     699.819    -635.374
  N       84.553     699.183    -635.033
  N       87.200     699.311    -633.337
  C       88.452     699.638    -633.138
  N       89.016     700.268    -634.204
  O       94.172     697.500    -630.700
  O       91.863     697.877    -629.674
  H       90.758     703.240    -633.534
  H       92.413     697.710    -628.873
  H       86.885     701.556    -637.941
  H       89.014     699.444    -632.218
  H       90.392     701.460    -635.192
  H       90.670     700.725    -632.195
  H       93.024     701.303    -632.435
  H       93.261     700.014    -634.955
  H       92.775     697.790    -633.801
  H       83.826     699.133    -635.718
  H       84.596     698.497    -634.271
  H       94.065     698.771    -633.046
  P       93.616     703.563    -633.733
  C       96.031     702.865    -634.209
  O       94.949     703.669    -634.637
  O       93.816     703.631    -632.248
  O       92.726     704.813    -634.274
  H       92.985     705.626    -633.775
  H       96.548     703.360    -633.376
  H       96.728     702.735    -635.049
  H       95.691     701.888    -633.893
  H       92.005     694.115    -631.456
  H       92.385     694.884    -629.933
  H       93.587     694.810    -631.198

 3  4  5  6  7  8  9  10  11  12  22  25  29  30  31  32 0
 6-311+G(2d,p)
 ****
 33  36  37 0
 6-311+G(2d,p)
 ****
 1  2  13  14  15  16  17  18  19  20  21  23  24  26 0
 3-21G
 ****
 27  28  34  35  38  39  40  41  42  43  44  45  46  47  48 0
 3-21G
 ****


