%nproc=1
%NoSave
%Mem=1900MB
#P OB98/GEN NMR

erre ene a

0 1
  C      243.365     113.385     408.846
  O      243.103     111.986     408.744
  P      244.297     111.016     408.294
  C      245.403     111.093     410.626
  O      244.866     110.267     409.595
  C      246.385     110.295     411.499
  O      247.162     111.227     412.300
  C      245.728     109.338     412.499
  O      245.444     108.007     412.073
  C      246.814     109.229     413.568
  O      247.793     108.250     413.170
  C      247.451     110.617     413.576
  N      248.804     113.331     417.696
  C      249.527     112.602     416.821
  N      249.088     111.907     415.749
  C      247.759     112.029     415.613
  C      246.893     112.740     416.428
  C      247.464     113.415     417.520
  N      246.729     114.148     418.419
  N      245.594     112.622     415.977
  C      245.674     111.838     414.921
  N      246.961     111.464     414.652
  O      245.327     111.619     407.397
  O      243.516     109.832     407.543
  H      247.354     107.379     413.231
  H      244.048     109.539     406.776
  H      250.598     112.568     417.005
  H      244.831     111.518     414.324
  H      248.542     110.572     413.677
  H      246.418     108.901     414.535
  H      244.825     109.784     412.933
  H      247.076     109.744     410.854
  H      244.591     111.482     411.244
  H      247.209     114.564     419.201
  H      245.721     114.173     418.336
  H      245.875     111.951     410.145
  P      244.004     107.346     412.308
  C      242.695     108.438     410.324
  O      243.313     107.291     410.862
  O      243.177     107.990     413.365
  O      244.367     105.814     412.590
  H      244.721     105.336     411.822
  H      242.485     108.258     409.263
  H      243.348     109.310     410.411
  H      241.752     108.627     410.843
  H      242.475     113.893     409.155
  H      243.678     113.760     407.894
  H      244.139     113.551     409.566

 3  4  5  6  7  8  9  10  11  12  22  25  29  30  31  32 0
 6-311+G(2d,p)
 ****
 33  36  37 0
 6-311+G(2d,p)
 ****
 1  2  13  14  15  16  17  18  19  20  21  23  24  26 0
 3-21G
 ****
 27  28  34  35  38  39  40  41  42  43  44  45  46  47  48 0
 3-21G
 ****


