%nproc=1
%NoSave
%Mem=1900MB
#P OB98/GEN NMR

erre ene a

0 1
  C      -76.414    -277.820     -62.554
  O      -76.043    -278.689     -63.608
  H      -76.823    -278.417     -61.734
  H      -77.180    -277.113     -62.888
  H      -75.540    -277.274     -62.187
  P      -75.486    -278.049     -64.965
  C      -77.593    -278.818     -66.258
  O      -76.768    -277.724     -65.872
  C      -78.745    -278.336     -67.140
  O      -79.612    -279.438     -67.475
  C      -79.637    -277.292     -66.478
  O      -78.997    -276.031     -66.460
  C      -80.872    -277.380     -67.361
  O      -80.675    -276.678     -68.599
  C      -80.956    -278.909     -67.608
  N      -81.876    -279.597     -66.706
  C      -83.132    -279.920     -67.239
  O      -83.413    -279.611     -68.398
  N      -84.035    -280.567     -66.430
  C      -83.708    -280.900     -65.222
  N      -84.647    -281.543     -64.478
  C      -82.384    -280.612     -64.636
  C      -81.531    -279.955     -65.421
  O      -74.410    -278.822     -65.668
  O      -74.975    -276.597     -64.526
  H      -81.513    -276.762     -69.095
  H      -74.021    -276.617     -64.318
  H      -82.147    -280.918     -63.624
  H      -80.535    -279.699     -65.069
  H      -81.276    -279.115     -68.640
  H      -81.757    -276.951     -66.884
  H      -79.913    -277.610     -65.467
  H      -78.319    -277.953     -68.076
  H      -85.536    -281.736     -64.928
  H      -77.982    -279.270     -65.341
  H      -84.452    -281.990     -63.592
  H      -77.003    -279.575     -66.792
  P      -79.606    -274.795     -65.638
  C      -80.964    -273.971     -67.663
  O      -81.018    -274.462     -66.331
  O      -78.694    -273.625     -65.480
  O      -80.052    -275.449     -64.247
  H      -79.267    -275.596     -63.664
  H      -81.957    -273.787     -68.016
  H      -80.491    -274.696     -68.292
  H      -80.403    -273.060     -67.685

 6  7  8  9  10  11  12  13  14  15  16  26  30  31  32  33  35 0
 6-311+G(2d,p)
 ****
 37  38 0
 6-311+G(2d,p)
 ****
 1  2  3  4  5  17  18  19  20  21  22  23  24  25 0
 3-21G
 ****
 27  28  29  34  36  39  40  41  42  43  44  45  46 0
 3-21G
 ****


