%nproc=1
%NoSave
%Mem=1900MB
#P OB98/GEN NMR

erre ene a

0 1
  C     -267.994     113.207      72.652
  O     -267.175     114.342      72.939
  P     -266.204     114.909      71.797
  C     -264.106     113.639      72.587
  O     -264.697     114.910      72.353
  C     -262.934     113.756      73.571
  O     -261.876     114.588      73.011
  C     -263.348     114.394      74.904
  O     -262.582     113.840      75.986
  C     -262.928     115.840      74.733
  O     -262.779     116.500      75.988
  C     -261.637     115.668      73.937
  N     -258.439     119.668      73.887
  C     -258.520     118.591      74.700
  N     -259.381     117.555      74.639
  C     -260.218     117.695      73.598
  C     -260.251     118.733      72.679
  C     -259.311     119.762      72.857
  N     -259.249     120.873      72.046
  N     -261.255     118.538      71.751
  C     -261.848     117.425      72.135
  N     -261.239     116.863      73.223
  O     -266.638     116.183      71.154
  O     -266.174     113.711      70.731
  H     -262.026     116.086      76.448
  H     -266.223     114.085      69.829
  H     -257.796     118.562      75.511
  H     -262.723     116.995      71.671
  H     -260.799     115.371      74.581
  H     -263.684     116.379      74.150
  H     -264.412     114.298      75.143
  H     -262.506     112.762      73.735
  H     -263.758     113.217      71.643
  H     -258.621     121.613      72.319
  H     -259.985     121.026      71.370
  H     -264.872     112.951      72.960
  P     -263.232     112.570      76.734
  C     -263.410     113.269      79.246
  O     -262.676     112.618      78.234
  O     -263.038     111.285      76.000
  O     -264.763     113.012      76.864
  H     -264.902     113.898      77.238
  H     -262.931     113.078      80.208
  H     -264.436     112.891      79.288
  H     -263.421     114.348      79.067
  H     -268.577     112.960      73.515
  H     -267.373     112.376      72.391
  H     -268.646     113.435      71.835

 3  4  5  6  7  8  9  10  11  12  22  25  29  30  31  32 0
 6-311+G(2d,p)
 ****
 33  36  37 0
 6-311+G(2d,p)
 ****
 1  2  13  14  15  16  17  18  19  20  21  23  24  26 0
 3-21G
 ****
 27  28  34  35  38  39  40  41  42  43  44  45  46  47  48 0
 3-21G
 ****


