%nproc=1
%NoSave
%Mem=1900MB
#P OB98/GEN NMR

erre ene a

0 1
  C     -471.185    -237.265    -447.996
  O     -472.338    -237.889    -448.566
  P     -472.110    -239.352    -449.201
  C     -472.294    -238.593    -451.679
  O     -471.480    -239.159    -450.668
  C     -471.692    -238.847    -453.066
  O     -471.807    -240.229    -453.470
  C     -472.361    -238.027    -454.168
  O     -471.853    -236.701    -454.162
  C     -471.960    -238.807    -455.419
  O     -470.642    -238.440    -455.877
  C     -471.953    -240.259    -454.914
  N     -474.120    -243.252    -458.409
  C     -472.940    -242.517    -458.467
  N     -472.235    -242.612    -459.620
  N     -472.507    -241.757    -457.492
  C     -473.313    -241.765    -456.403
  C     -474.486    -242.468    -456.220
  C     -474.955    -243.299    -457.303
  O     -475.976    -243.985    -457.291
  N     -474.996    -242.265    -454.960
  C     -474.208    -241.335    -454.441
  N     -473.133    -241.047    -455.257
  O     -473.606    -239.867    -449.486
  O     -471.370    -240.282    -448.299
  H     -470.557    -238.669    -456.821
  H     -473.826    -240.585    -448.864
  H     -474.405    -243.810    -459.183
  H     -474.348    -240.875    -453.480
  H     -471.096    -240.825    -455.306
  H     -472.646    -238.626    -456.250
  H     -472.503    -243.178    -460.406
  H     -473.453    -238.041    -454.048
  H     -471.363    -242.086    -459.679
  H     -470.621    -238.600    -453.012
  H     -472.398    -237.519    -451.517
  H     -473.302    -239.019    -451.606
  P     -472.747    -235.566    -453.447
  C     -473.336    -234.514    -455.759
  O     -473.812    -235.051    -454.533
  O     -471.718    -234.339    -453.304
  O     -473.310    -235.961    -452.129
  H     -471.811    -233.951    -452.414
  H     -474.087    -234.698    -456.536
  H     -472.387    -234.973    -456.060
  H     -473.200    -233.435    -455.654
  H     -471.454    -236.305    -447.608
  H     -470.434    -237.147    -448.749
  H     -470.804    -237.876    -447.204

 3  4  5  6  7  8  9  10  11  12  23  26  30  31 0
 6-311+G(2d,p)
 ****
 33  35  36  37  38 0
 6-311+G(2d,p)
 ****
 1  2  13  14  15  16  17  18  19  20  21  22  24  25 0
 3-21G
 ****
 27  28  29  32  34  39  40  41  42  43  44  45  46  47  48  49 0
 3-21G
 ****


