%nproc=1
%NoSave
%Mem=1900MB
#P OB98/GEN NMR

erre ene a

0 1
  C      227.509    -132.249    -154.142
  O      227.014    -132.125    -155.489
  P      227.753    -131.119    -156.502
  C      225.518    -130.263    -157.566
  O      226.792    -130.862    -157.761
  C      224.534    -130.762    -158.627
  O      224.245    -132.167    -158.429
  C      223.176    -130.070    -158.601
  O      223.228    -128.782    -159.185
  C      222.319    -131.057    -159.385
  O      222.471    -130.856    -160.804
  C      222.921    -132.413    -158.961
  N      222.082    -133.122    -157.999
  C      220.778    -133.396    -158.398
  O      220.310    -133.020    -159.471
  N      220.012    -134.091    -157.503
  C      220.391    -134.472    -156.243
  O      219.648    -135.077    -155.478
  C      221.754    -134.084    -155.849
  C      222.523    -133.434    -156.725
  O      228.888    -132.058    -157.138
  O      228.361    -129.904    -155.882
  H      223.372    -131.151    -161.033
  H      229.650    -131.514    -157.411
  H      219.073    -134.326    -157.783
  H      222.085    -134.347    -154.850
  H      223.530    -133.142    -156.447
  H      223.066    -133.054    -159.838
  H      221.253    -130.955    -159.162
  H      222.807    -130.015    -157.570
  H      225.004    -130.648    -159.612
  H      225.612    -129.176    -157.649
  H      225.160    -130.510    -156.559
  P      222.427    -127.613    -158.420
  C      221.192    -126.591    -160.489
  O      222.210    -126.465    -159.517
  O      223.569    -127.046    -157.450
  O      221.200    -128.104    -157.727
  H      224.452    -127.102    -157.849
  H      220.321    -127.121    -160.092
  H      221.581    -127.133    -161.355
  H      220.881    -125.590    -160.808
  H      226.909    -132.953    -153.605
  H      227.462    -131.297    -153.656
  H      228.523    -132.589    -154.165

 3  4  5  6  7  8  9  10  11  12  13  23  28  29  30  31  32 0
 6-311+G(2d,p)
 ****
 33  34 0
 6-311+G(2d,p)
 ****
 1  2  14  15  16  17  18  19  20  21  22  24  25  26 0
 3-21G
 ****
 27  35  36  37  38  39  40  41  42  43  44  45 0
 3-21G
 ****


