%nproc=1
%NoSave
%Mem=1900MB
#P OB98/GEN NMR

erre ene a

0 1
  C     -104.870    -115.921    -210.248
  O     -104.357    -114.600    -210.254
  P     -103.109    -114.259    -209.312
  C     -101.535    -114.470    -211.372
  O     -101.790    -114.834    -210.024
  C     -100.042    -114.585    -211.681
  O      -99.850    -114.622    -213.128
  C      -99.201    -113.421    -211.139
  O      -97.916    -113.948    -210.774
  C      -99.056    -112.526    -212.356
  O      -97.971    -111.616    -212.255
  C      -98.902    -113.585    -213.452
  N      -99.124    -113.051    -214.794
  C      -98.043    -112.447    -215.429
  O      -96.926    -112.337    -214.928
  N      -98.302    -111.903    -216.657
  C      -99.523    -111.825    -217.262
  O      -99.710    -111.220    -218.311
  C     -100.629    -112.481    -216.546
  C     -100.382    -113.055    -215.366
  O     -103.318    -115.232    -208.060
  O     -103.011    -112.830    -208.899
  H      -97.215    -112.102    -211.878
  H     -103.710    -114.745    -207.311
  H      -97.528    -111.470    -217.137
  H     -101.607    -112.456    -217.006
  H     -101.183    -113.527    -214.806
  H      -97.903    -114.038    -213.402
  H      -99.974    -111.943    -212.489
  H      -99.658    -112.908    -210.287
  H      -99.674    -115.539    -211.282
  H     -101.858    -113.440    -211.533
  H     -102.119    -115.112    -212.042
  P      -97.182    -113.317    -209.493
  C      -98.405    -115.049    -207.966
  O      -98.069    -113.701    -208.217
  O      -97.480    -111.758    -209.715
  O      -95.726    -113.643    -209.415
  H      -98.395    -111.589    -209.995
  H      -97.605    -115.727    -208.268
  H      -99.318    -115.302    -208.509
  H      -98.586    -115.174    -206.894
  H     -105.696    -115.986    -210.925
  H     -105.197    -116.172    -209.261
  H     -104.104    -116.603    -210.554

 3  4  5  6  7  8  9  10  11  12  13  23  28  29  30  31  32 0
 6-311+G(2d,p)
 ****
 33  34 0
 6-311+G(2d,p)
 ****
 1  2  14  15  16  17  18  19  20  21  22  24  25  26 0
 3-21G
 ****
 27  35  36  37  38  39  40  41  42  43  44  45 0
 3-21G
 ****


