%nproc=1
%NoSave
%Mem=1900MB
#P OB98/GEN NMR

erre ene a

0 1
  C      551.334     685.799     -81.919
  O      552.358     686.595     -82.520
  P      552.007     687.444     -83.833
  C      552.493     689.741     -82.765
  O      552.843     688.813     -83.782
  C      553.754     690.332     -82.118
  O      554.298     689.459     -81.113
  C      554.878     690.582     -83.107
  O      554.608     691.720     -83.912
  C      556.074     690.723     -82.173
  O      556.144     692.048     -81.628
  C      555.721     689.706     -81.047
  N      556.486     688.476     -81.122
  C      557.101     688.061     -79.940
  O      557.024     688.745     -78.923
  N      557.818     686.885     -79.945
  C      557.920     686.194     -81.046
  N      558.634     685.040     -80.990
  C      557.288     686.607     -82.319
  C      556.605     687.753     -82.286
  O      550.551     687.612     -84.130
  O      552.748     686.628     -84.998
  H      557.050     692.155     -81.287
  H      552.250     686.734     -85.828
  H      557.393     685.995     -83.194
  H      556.118     688.124     -83.178
  H      555.906     690.160     -80.063
  H      557.018     690.521     -82.679
  H      555.005     689.697     -83.742
  H      553.463     691.281     -81.628
  H      559.061     684.793     -80.110
  H      551.885     689.244     -82.009
  H      558.724     684.410     -81.780
  H      551.870     690.529     -83.209
  P      555.305     691.782     -85.358
  C      553.194     691.889     -86.859
  O      554.312     692.575     -86.332
  O      555.203     690.268     -85.875
  O      556.722     692.255     -85.346
  H      555.982     690.053     -86.421
  H      552.477     692.626     -87.234
  H      552.697     691.288     -86.095
  H      553.507     691.248     -87.694
  H      551.729     685.300     -81.059
  H      550.986     685.073     -82.624
  H      550.520     686.428     -81.624

 3  4  5  6  7  8  9  10  11  12  13  23  27  28  29  30  32 0
 6-311+G(2d,p)
 ****
 34  35 0
 6-311+G(2d,p)
 ****
 1  2  14  15  16  17  18  19  20  21  22  24  25  26 0
 3-21G
 ****
 31  33  36  37  38  39  40  41  42  43  44  45  46 0
 3-21G
 ****


