%nproc=1
%NoSave
%Mem=1900MB
#P OB98/GEN NMR

erre ene a

0 1
  C     -360.003       5.740    -336.132
  O     -360.441       5.015    -334.996
  H     -359.280       6.490    -335.808
  H     -360.855       6.246    -336.598
  H     -359.524       5.067    -336.853
  P     -361.383       3.746    -335.271
  C     -360.243       2.778    -333.108
  O     -361.410       2.880    -333.916
  C     -360.367       1.579    -332.170
  O     -360.657       0.369    -332.897
  C     -359.079       1.252    -331.424
  O     -358.766       2.198    -330.430
  C     -359.417      -0.129    -330.886
  O     -360.255      -0.038    -329.720
  C     -360.203      -0.742    -332.075
  N     -359.411      -1.686    -332.839
  C     -360.141      -2.650    -333.552
  O     -361.370      -2.652    -333.511
  N     -359.458      -3.605    -334.257
  C     -358.160      -3.579    -334.284
  N     -357.536      -4.564    -335.001
  C     -357.353      -2.571    -333.580
  C     -358.033      -1.674    -332.874
  O     -360.488       2.850    -336.248
  O     -362.745       4.063    -335.796
  H     -360.605      -0.935    -329.568
  H     -359.600       2.665    -335.900
  H     -356.270      -2.587    -333.630
  H     -357.521      -0.892    -332.325
  H     -361.107      -1.256    -331.716
  H     -358.529      -0.691    -330.595
  H     -358.248       1.140    -332.134
  H     -361.195       1.770    -331.478
  H     -358.120      -5.253    -335.457
  H     -360.082       3.697    -332.540
  H     -356.533      -4.664    -335.065
  H     -359.392       2.646    -333.784
  P     -357.352       2.937    -330.421
  C     -358.378       4.757    -328.922
  O     -357.313       3.829    -329.084
  O     -357.006       3.684    -331.676
  O     -356.317       1.761    -330.069
  H     -356.484       1.326    -329.216
  H     -358.249       5.291    -328.004
  H     -359.309       4.231    -328.901
  H     -358.377       5.447    -329.740

 6  7  8  9  10  11  12  13  14  15  16  26  30  31  32  33  35 0
 6-311+G(2d,p)
 ****
 37  38 0
 6-311+G(2d,p)
 ****
 1  2  3  4  5  17  18  19  20  21  22  23  24  25 0
 3-21G
 ****
 27  28  29  34  36  39  40  41  42  43  44  45  46 0
 3-21G
 ****


