%nproc=1
%NoSave
%Mem=1900MB
#P OB98/GEN NMR

erre ene a

0 1
  C     -177.313     -73.457     -70.924
  O     -177.847     -73.360     -69.610
  P     -179.277     -72.646     -69.439
  C     -180.092     -70.179     -69.458
  O     -178.982     -71.070     -69.506
  C     -179.615     -68.736     -69.327
  O     -178.891     -68.561     -68.093
  C     -178.667     -68.281     -70.428
  O     -179.357     -67.890     -71.603
  C     -178.018     -67.075     -69.768
  O     -178.903     -65.940     -69.845
  C     -177.881     -67.540     -68.313
  N     -172.901     -66.446     -67.916
  C     -173.957     -65.703     -68.312
  N     -175.252     -66.070     -68.401
  C     -175.405     -67.363     -68.066
  C     -174.416     -68.253     -67.678
  C     -173.109     -67.746     -67.596
  N     -172.038     -68.497     -67.164
  N     -174.955     -69.493     -67.416
  C     -176.246     -69.354     -67.630
  N     -176.569     -68.082     -68.016
  O     -179.619     -72.891     -67.894
  O     -180.348     -73.155     -70.341
  H     -178.483     -65.218     -69.340
  H     -180.584     -72.837     -67.753
  H     -173.732     -64.676     -68.586
  H     -176.982     -70.137     -67.511
  H     -178.075     -66.733     -67.598
  H     -177.080     -66.780     -70.247
  H     -177.902     -69.040     -70.634
  H     -180.501     -68.089     -69.293
  H     -180.714     -70.429     -68.594
  H     -171.177     -68.016     -66.956
  H     -172.229     -69.396     -66.737
  H     -180.689     -70.302     -70.369
  P     -178.714     -68.345     -73.004
  C     -176.580     -67.621     -74.300
  O     -177.495     -67.337     -73.258
  O     -179.819     -67.896     -74.071
  O     -178.400     -69.801     -73.088
  H     -179.757     -68.444     -74.877
  H     -176.024     -66.709     -74.533
  H     -177.102     -67.951     -75.204
  H     -175.877     -68.392     -73.976
  H     -176.364     -73.951     -70.888
  H     -177.189     -72.476     -71.332
  H     -177.984     -74.018     -71.541

 3  4  5  6  7  8  9  10  11  12  22  25  29  30  31  32 0
 6-311+G(2d,p)
 ****
 33  36  37 0
 6-311+G(2d,p)
 ****
 1  2  13  14  15  16  17  18  19  20  21  23  24  26 0
 3-21G
 ****
 27  28  34  35  38  39  40  41  42  43  44  45  46  47  48 0
 3-21G
 ****


