%nproc=1
%NoSave
%Mem=1900MB
#P OB98/GEN NMR

erre ene a

0 1
  C      137.686    -386.306    -144.252
  O      138.633    -387.074    -144.967
  H      138.192    -385.594    -143.592
  H      137.073    -385.750    -144.968
  H      137.037    -386.963    -143.666
  P      139.701    -387.884    -144.089
  C      140.576    -387.197    -141.746
  O      140.383    -386.818    -143.101
  C      141.016    -385.996    -140.919
  O      140.230    -384.837    -141.265
  C      140.847    -386.163    -139.416
  O      141.896    -386.942    -138.846
  C      140.925    -384.712    -138.960
  O      142.302    -384.294    -138.895
  C      140.205    -383.971    -140.099
  N      137.097    -381.149    -137.143
  C      138.445    -381.254    -137.191
  N      139.203    -382.033    -137.991
  C      138.430    -382.746    -138.827
  C      137.049    -382.739    -138.898
  C      136.370    -381.901    -137.999
  N      134.995    -381.807    -137.950
  N      136.608    -383.586    -139.893
  C      137.705    -384.096    -140.416
  N      138.829    -383.625    -139.799
  O      140.870    -388.218    -145.132
  O      139.185    -389.123    -143.436
  H      142.709    -384.786    -138.154
  H      141.241    -389.096    -144.924
  H      138.989    -380.629    -136.487
  H      137.727    -384.807    -141.234
  H      140.738    -383.051    -140.378
  H      140.486    -384.545    -137.975
  H      139.865    -386.570    -139.163
  H      142.065    -385.777    -141.174
  H      141.349    -387.973    -141.693
  H      134.579    -381.054    -137.432
  H      134.457    -382.369    -138.604
  H      139.636    -387.606    -141.356
  P      141.714    -387.426    -137.322
  C      140.499    -386.281    -135.337
  O      141.295    -386.109    -136.501
  O      143.218    -387.694    -136.850
  O      140.850    -388.624    -137.137
  H      143.226    -388.337    -136.120
  H      140.299    -385.326    -134.897
  H      141.023    -386.895    -134.634
  H      139.575    -386.752    -135.603

 6  7  8  9  10  11  12  13  14  15  25  28  32  33  34  35 0
 6-311+G(2d,p)
 ****
 36  39  40 0
 6-311+G(2d,p)
 ****
 1  2  3  4  5  16  17  18  19  20  21  22  23  24 0
 3-21G
 ****
 26  27  29  30  31  37  38  41  42  43  44  45  46  47  48 0
 3-21G
 ****


