%nproc=1
%NoSave
%Mem=1900MB
#P OB98/GEN NMR

erre ene a

0 1
  C      176.163    -186.927      11.742
  O      176.598    -187.974      12.615
  P      176.243    -189.482      12.191
  C      178.173    -189.777      10.444
  O      176.780    -189.644      10.689
  C      178.481    -191.184       9.937
  O      177.809    -191.433       8.679
  C      179.956    -191.439       9.665
  O      180.684    -191.601      10.872
  C      179.878    -192.683       8.791
  O      179.699    -193.854       9.602
  C      178.602    -192.413       7.966
  N      178.881    -191.983       6.601
  C      179.020    -193.002       5.663
  O      178.942    -194.196       5.948
  N      179.276    -192.600       4.380
  C      179.432    -191.311       3.961
  O      179.651    -191.010       2.794
  C      179.324    -190.282       5.007
  C      179.058    -190.658       6.260
  O      174.655    -189.394      12.040
  O      176.734    -190.493      13.172
  H      174.353    -188.538      11.694
  H      178.825    -193.763      10.030
  H      179.367    -193.321       3.682
  H      179.468    -189.250       4.715
  H      178.976    -189.914       7.047
  H      177.986    -193.321       7.915
  H      180.783    -192.833       8.194
  H      180.378    -190.606       9.089
  H      178.104    -191.903      10.676
  H      178.733    -189.596      11.366
  H      178.478    -189.019       9.717
  P      182.279    -191.414      10.788
  C      182.291    -189.007      11.807
  O      182.546    -189.838      10.696
  O      182.576    -191.945       9.308
  O      183.024    -192.134      11.863
  H      181.941    -191.615       8.651
  H      182.843    -188.072      11.680
  H      182.609    -189.477      12.741
  H      181.223    -188.780      11.858
  H      176.464    -185.981      12.142
  H      175.097    -186.955      11.655
  H      176.603    -187.062      10.776

 3  4  5  6  7  8  9  10  11  12  13  24  28  29  30  31  32 0
 6-311+G(2d,p)
 ****
 33  34 0
 6-311+G(2d,p)
 ****
 1  2  14  15  16  17  18  19  20  21  22  23  25  26  27 0
 3-21G
 ****
 35  36  37  38  39  40  41  42  43  44  45 0
 3-21G
 ****


