%nproc=1
%NoSave
%Mem=1900MB
#P OB98/GEN NMR

erre ene a

0 1
  C      -36.619    -248.062    -248.293
  O      -35.429    -247.415    -248.707
  P      -35.511    -245.839    -249.001
  C      -36.833    -245.777    -251.243
  O      -35.572    -245.667    -250.594
  C      -36.659    -245.614    -252.751
  O      -36.528    -244.222    -253.089
  C      -35.424    -246.294    -253.324
  O      -35.602    -247.697    -253.418
  C      -35.305    -245.573    -254.664
  O      -36.241    -246.125    -255.603
  C      -35.715    -244.137    -254.292
  N      -31.812    -241.610    -256.438
  C      -32.760    -242.418    -256.963
  N      -33.753    -243.073    -256.324
  C      -33.717    -242.820    -255.004
  C      -32.798    -242.038    -254.326
  C      -31.809    -241.410    -255.097
  N      -30.842    -240.588    -254.557
  N      -33.063    -242.033    -252.974
  C      -34.132    -242.793    -252.838
  N      -34.571    -243.281    -254.037
  O      -34.044    -245.320    -248.629
  O      -36.573    -245.110    -248.238
  H      -37.140    -245.935    -255.264
  H      -34.077    -244.420    -248.252
  H      -32.717    -242.555    -258.037
  H      -34.622    -243.015    -251.900
  H      -36.321    -243.658    -255.067
  H      -34.308    -245.653    -255.110
  H      -34.545    -246.076    -252.704
  H      -37.567    -246.002    -253.240
  H      -37.500    -244.992    -250.878
  H      -30.088    -240.299    -255.160
  H      -30.757    -240.553    -253.549
  H      -37.273    -246.748    -251.000
  P      -34.459    -248.628    -252.785
  C      -33.149    -248.518    -254.990
  O      -33.809    -249.359    -254.061
  O      -35.326    -249.798    -252.121
  O      -33.508    -247.928    -251.880
  H      -35.995    -250.149    -252.732
  H      -32.713    -249.141    -255.773
  H      -32.355    -247.954    -254.496
  H      -33.867    -247.831    -255.447
  H      -36.423    -249.102    -248.133
  H      -37.367    -247.953    -249.051
  H      -36.967    -247.621    -247.382

 3  4  5  6  7  8  9  10  11  12  22  25  29  30  31  32 0
 6-311+G(2d,p)
 ****
 33  36  37 0
 6-311+G(2d,p)
 ****
 1  2  13  14  15  16  17  18  19  20  21  23  24  26 0
 3-21G
 ****
 27  28  34  35  38  39  40  41  42  43  44  45  46  47  48 0
 3-21G
 ****


