%nproc=1
%NoSave
%Mem=1900MB
#P OB98/GEN NMR

erre ene a

0 1
  C      390.475      87.612      -7.825
  O      391.462      88.316      -7.100
  H      390.876      87.360      -8.806
  H      389.588      88.235      -7.956
  H      390.210      86.685      -7.304
  P      391.088      88.769      -5.598
  C      393.609      88.998      -4.991
  O      392.345      89.643      -5.101
  C      394.605      89.901      -4.252
  O      395.033      90.957      -5.145
  C      394.023      90.553      -2.991
  O      394.995      90.501      -1.942
  C      393.756      91.994      -3.406
  O      393.787      92.883      -2.299
  C      394.847      92.216      -4.466
  N      394.473      93.279      -5.415
  C      394.578      94.591      -4.947
  O      394.955      94.825      -3.795
  N      394.203      95.614      -5.785
  C      393.709      95.352      -6.956
  N      393.328      96.411      -7.728
  C      393.531      93.976      -7.467
  C      393.933      92.998      -6.648
  O      391.221      87.405      -4.774
  O      389.762      89.443      -5.447
  H      393.156      92.555      -1.623
  H      390.819      87.486      -3.872
  H      393.103      93.801      -8.442
  H      393.848      91.953      -6.941
  H      395.797      92.493      -3.993
  H      392.768      92.054      -3.870
  H      393.107      90.076      -2.656
  H      395.497      89.313      -4.013
  H      393.454      97.332      -7.337
  H      393.985      88.772      -5.997
  H      392.911      96.315      -8.638
  H      393.489      88.065      -4.431
  P      394.441      90.041      -0.503
  C      396.816      89.078      -0.125
  O      395.709      89.758       0.445
  O      393.828      88.586      -0.774
  O      393.423      90.988       0.078
  H      392.858      88.635      -0.886
  H      397.581      88.959       0.614
  H      397.199      89.646      -0.947
  H      396.503      88.116      -0.472

 6  7  8  9  10  11  12  13  14  15  16  26  30  31  32  33  35 0
 6-311+G(2d,p)
 ****
 37  38 0
 6-311+G(2d,p)
 ****
 1  2  3  4  5  17  18  19  20  21  22  23  24  25 0
 3-21G
 ****
 27  28  29  34  36  39  40  41  42  43  44  45  46 0
 3-21G
 ****


