%nproc=1
%NoSave
%Mem=1900MB
#P OB98/GEN NMR

erre ene a

0 1
  C     -303.931    -156.729    -254.252
  O     -305.205    -156.832    -253.656
  P     -306.499    -156.186    -254.342
  C     -306.982    -158.172    -255.917
  O     -306.592    -156.803    -255.826
  C     -307.472    -158.493    -257.334
  O     -307.699    -159.933    -257.438
  C     -308.797    -157.777    -257.687
  O     -308.762    -157.032    -258.906
  C     -309.807    -158.912    -257.637
  O     -310.996    -158.648    -258.359
  C     -308.970    -160.100    -258.103
  N     -309.588    -161.385    -257.796
  C     -310.465    -161.911    -258.742
  O     -310.728    -161.379    -259.813
  N     -311.090    -163.076    -258.395
  C     -311.029    -163.694    -257.177
  O     -311.696    -164.678    -256.904
  C     -310.118    -163.067    -256.204
  C     -309.434    -161.978    -256.552
  O     -306.577    -154.700    -254.293
  O     -307.712    -156.928    -253.601
  H     -311.502    -157.972    -257.866
  H     -307.717    -157.896    -253.697
  H     -311.731    -163.474    -259.071
  H     -310.055    -163.526    -255.228
  H     -308.758    -161.492    -255.855
  H     -308.778    -160.064    -259.180
  H     -310.095    -159.054    -256.589
  H     -309.051    -157.030    -256.927
  H     -306.679    -158.217    -258.036
  H     -307.791    -158.357    -255.207
  H     -306.140    -158.817    -255.637
  P     -309.271    -155.528    -259.077
  C     -306.839    -154.677    -258.696
  O     -308.209    -154.558    -258.366
  O     -310.692    -155.289    -258.697
  O     -309.046    -155.236    -260.637
  H     -309.697    -154.579    -260.944
  H     -306.245    -154.367    -257.835
  H     -306.613    -154.026    -259.538
  H     -306.572    -155.711    -258.950
  H     -303.209    -157.224    -253.637
  H     -303.666    -155.697    -254.352
  H     -303.951    -157.188    -255.219

 3  4  5  6  7  8  9  10  11  12  13  23  28  29  30  31  32 0
 6-311+G(2d,p)
 ****
 33  34 0
 6-311+G(2d,p)
 ****
 1  2  14  15  16  17  18  19  20  21  22  24  25  26  27 0
 3-21G
 ****
 35  36  37  38  39  40  41  42  43  44  45 0
 3-21G
 ****


