%nproc=1
%NoSave
%Mem=1900MB
#P OB98/GEN NMR

erre ene a

0 1
  C      -67.210     -51.498     197.205
  O      -67.831     -52.489     197.998
  H      -66.430     -51.971     196.603
  H      -66.751     -50.732     197.834
  H      -67.940     -51.040     196.531
  P      -68.940     -52.031     199.060
  C      -70.756     -53.295     197.723
  O      -70.348     -52.062     198.296
  C      -71.820     -53.068     196.641
  O      -71.311     -52.107     195.675
  C      -72.196     -54.341     195.864
  O      -73.561     -54.202     195.452
  C      -71.264     -54.248     194.673
  O      -71.646     -55.132     193.648
  C      -71.336     -52.747     194.380
  N      -70.255     -52.290     193.523
  C      -70.475     -52.385     192.146
  O      -71.533     -52.846     191.717
  N      -69.482     -51.984     191.290
  C      -68.343     -51.589     191.766
  N      -67.395     -51.221     190.863
  C      -68.048     -51.530     193.213
  C      -69.040     -51.887     194.026
  O      -68.653     -50.764     199.793
  O      -69.047     -53.274     200.066
  H      -71.391     -54.779     192.766
  H      -68.599     -53.058     200.904
  H      -67.076     -51.212     193.558
  H      -68.919     -51.878     195.104
  H      -72.291     -52.487     193.904
  H      -70.244     -54.526     194.959
  H      -72.069     -55.253     196.452
  H      -72.704     -52.613     197.106
  H      -67.637     -51.287     189.882
  H      -71.167     -53.912     198.527
  H      -66.467     -50.917     191.115
  H      -69.895     -53.812     197.287
  P      -74.800     -54.471     196.435
  C      -75.927     -52.152     196.360
  O      -75.215     -53.100     197.150
  O      -74.589     -55.612     197.378
  O      -76.040     -54.774     195.466
  H      -76.649     -55.392     195.912
  H      -76.143     -51.286     196.950
  H      -76.842     -52.588     196.018
  H      -75.330     -51.870     195.518

 6  7  8  9  10  11  12  13  14  15  16  26  30  31  32  33  35 0
 6-311+G(2d,p)
 ****
 37  38 0
 6-311+G(2d,p)
 ****
 1  2  3  4  5  17  18  19  20  21  22  23  24  25 0
 3-21G
 ****
 27  28  29  34  36  39  40  41  42  43  44  45  46 0
 3-21G
 ****


