%nproc=1
%NoSave
%Mem=1900MB
#P OB98/GEN NMR

erre ene a

0 1
  C      -17.058    -420.921     401.717
  O      -16.136    -420.392     400.777
  P      -14.919    -419.453     401.253
  C      -14.615    -417.832     403.243
  O      -15.535    -418.543     402.422
  C      -14.943    -416.340     403.214
  O      -16.264    -416.121     403.734
  C      -14.013    -415.468     404.048
  O      -12.765    -415.280     403.401
  C      -14.858    -414.219     404.220
  O      -14.786    -413.399     403.044
  C      -16.279    -414.810     404.352
  N      -16.725    -414.884     405.739
  C      -17.386    -413.771     406.249
  O      -17.582    -412.771     405.562
  N      -17.854    -413.803     407.555
  C      -17.652    -414.853     408.274
  N      -18.190    -414.866     409.524
  C      -16.910    -416.040     407.801
  C      -16.480    -415.987     406.540
  O      -14.246    -418.697     400.164
  O      -13.938    -420.429     402.058
  H      -15.536    -412.778     403.076
  H      -13.269    -420.877     401.480
  H      -16.753    -416.893     408.459
  H      -15.950    -416.829     406.110
  H      -16.997    -414.216     403.793
  H      -14.562    -413.600     405.073
  H      -13.840    -415.931     405.030
  H      -14.933    -416.009     402.165
  H      -18.835    -414.109     409.754
  H      -13.609    -417.985     402.853
  H      -18.325    -415.726     410.042
  H      -14.668    -418.222     404.264
  P      -11.560    -414.654     404.264
  C      -11.331    -412.556     405.770
  O      -12.109    -413.234     404.784
  O      -10.467    -414.284     403.148
  O      -11.018    -415.560     405.312
  H       -9.767    -414.950     403.136
  H      -11.690    -411.526     405.837
  H      -10.274    -412.536     405.481
  H      -11.451    -413.038     406.741
  H      -17.787    -421.515     401.206
  H      -17.547    -420.118     402.228
  H      -16.536    -421.529     402.426

 3  4  5  6  7  8  9  10  11  12  13  23  27  28  29  30  32 0
 6-311+G(2d,p)
 ****
 34  35 0
 6-311+G(2d,p)
 ****
 1  2  14  15  16  17  18  19  20  21  22  24  25  26 0
 3-21G
 ****
 31  33  36  37  38  39  40  41  42  43  44  45  46 0
 3-21G
 ****


