%nproc=1
%NoSave
%Mem=1900MB
#P OB98/GEN NMR

erre ene a

0 1
  C      958.503    -627.202      39.982
  O      959.910    -627.327      39.897
  H      958.132    -627.909      40.732
  H      958.052    -627.447      39.017
  H      958.222    -626.190      40.280
  P      960.695    -626.231      39.027
  C      962.168    -625.273      40.945
  O      962.125    -626.023      39.742
  C      963.479    -625.555      41.690
  O      963.343    -626.828      42.400
  C      964.696    -625.667      40.772
  O      965.833    -625.115      41.453
  C      964.886    -627.174      40.639
  O      966.213    -627.560      40.279
  C      964.471    -627.651      42.030
  N      964.128    -629.067      42.064
  C      964.980    -629.917      42.757
  O      965.955    -629.556      43.412
  N      964.669    -631.255      42.679
  C      963.631    -631.804      41.978
  O      963.426    -633.011      41.934
  C      962.776    -630.852      41.268
  C      963.051    -629.547      41.331
  O      959.912    -624.880      39.361
  O      960.769    -626.505      37.562
  H      959.172    -624.739      38.736
  H      966.453    -627.073      39.460
  H      965.283    -631.893      43.173
  H      961.954    -631.253      40.680
  H      962.447    -628.822      40.797
  H      965.266    -627.443      42.757
  H      964.202    -627.568      39.878
  H      964.576    -625.181      39.800
  H      963.626    -624.777      42.448
  H      961.329    -625.563      41.586
  H      962.088    -624.208      40.708
  P      967.137    -624.790      40.573
  C      967.266    -622.299      41.356
  O      967.870    -623.592      41.328
  O      966.475    -624.112      39.277
  O      967.970    -626.004      40.300
  H      965.688    -623.584      39.494
  H      967.892    -621.625      41.902
  H      966.310    -622.362      41.832
  H      967.143    -621.941      40.355

 6  7  8  9  10  11  12  13  14  15  16  27  31  32  33  34  35 0
 6-311+G(2d,p)
 ****
 36  37 0
 6-311+G(2d,p)
 ****
 1  2  3  4  5  17  18  19  20  21  22  23  24  25 0
 3-21G
 ****
 26  28  29  30  38  39  40  41  42  43  44  45 0
 3-21G
 ****


