%nproc=1
%NoSave
%Mem=1900MB
#P OB98/GEN NMR

erre ene a

0 1
  C      -63.871    -648.874      65.508
  O      -63.002    -649.990      65.501
  P      -61.521    -649.764      66.096
  C      -59.336    -648.799      65.040
  O      -60.574    -649.450      64.834
  C      -58.558    -648.749      63.728
  O      -59.226    -647.899      62.773
  C      -57.139    -648.213      63.855
  O      -56.256    -649.230      64.305
  C      -56.856    -647.744      62.434
  O      -56.471    -648.855      61.590
  C      -58.220    -647.181      62.004
  N      -58.128    -642.659      59.738
  C      -57.772    -643.904      59.254
  N      -57.381    -643.956      57.963
  N      -57.807    -645.003      59.965
  C      -58.204    -644.790      61.244
  C      -58.566    -643.609      61.842
  C      -58.573    -642.413      61.032
  O      -58.974    -641.305      61.386
  N      -58.894    -643.797      63.168
  C      -58.760    -645.093      63.353
  N      -58.369    -645.749      62.211
  O      -61.083    -651.236      66.550
  O      -61.429    -648.760      67.204
  H      -57.194    -649.500      61.568
  H      -61.222    -651.347      67.512
  H      -58.095    -641.851      59.140
  H      -58.953    -645.605      64.274
  H      -58.433    -647.371      60.936
  H      -56.034    -647.017      62.384
  H      -57.301    -643.153      57.356
  H      -57.112    -647.348      64.534
  H      -57.108    -644.860      57.584
  H      -58.543    -649.764      63.301
  H      -58.751    -649.357      65.784
  H      -59.517    -647.787      65.422
  P      -55.264    -648.859      65.513
  C      -53.282    -647.218      65.853
  O      -54.198    -647.807      64.948
  O      -54.407    -650.212      65.702
  O      -55.943    -648.477      66.787
  H      -54.215    -650.341      66.647
  H      -52.359    -646.980      65.315
  H      -53.050    -647.885      66.688
  H      -53.722    -646.292      66.248
  H      -64.815    -649.154      65.090
  H      -63.443    -648.085      64.925
  H      -64.012    -648.538      66.514

 3  4  5  6  7  8  9  10  11  12  23  26  30  31 0
 6-311+G(2d,p)
 ****
 33  35  36  37  38 0
 6-311+G(2d,p)
 ****
 1  2  13  14  15  16  17  18  19  20  21  22  24  25 0
 3-21G
 ****
 27  28  29  32  34  39  40  41  42  43  44  45  46  47  48  49 0
 3-21G
 ****


