%nproc=1
%NoSave
%Mem=1900MB
#P OB98/GEN NMR

erre ene a

0 1
  C     -121.216     117.980      -7.309
  O     -122.193     117.049      -6.891
  H     -121.651     118.982      -7.276
  H     -120.899     117.767      -8.334
  H     -120.355     117.946      -6.637
  P     -121.770     115.502      -6.921
  C     -121.929     113.637      -8.693
  O     -122.213     114.995      -8.381
  C     -122.123     113.382     -10.188
  O     -123.546     113.386     -10.476
  C     -121.470     114.443     -11.080
  O     -120.969     113.816     -12.262
  C     -122.632     115.348     -11.449
  O     -122.393     116.076     -12.649
  C     -123.778     114.340     -11.525
  N     -127.769     116.245     -14.045
  C     -126.710     115.512     -14.450
  N     -125.700     115.023     -13.701
  C     -125.889     115.313     -12.401
  C     -126.916     116.049     -11.840
  C     -127.889     116.538     -12.729
  N     -128.953     117.315     -12.333
  N     -126.733     116.168     -10.476
  C     -125.620     115.507     -10.218
  N     -125.065     114.991     -11.356
  O     -122.266     114.675      -5.784
  O     -120.178     115.597      -7.059
  H     -121.518     116.513     -12.577
  H     -119.916     116.243      -7.741
  H     -126.663     115.296     -15.514
  H     -125.172     115.388      -9.237
  H     -123.806     113.806     -12.484
  H     -122.808     116.074     -10.647
  H     -120.668     114.989     -10.582
  H     -121.753     112.379     -10.426
  H     -122.587     112.974      -8.121
  H     -129.605     117.622     -13.037
  H     -129.066     117.541     -11.356
  H     -120.893     113.433      -8.402
  P     -119.413     113.445     -12.346
  C     -117.240     114.468     -13.280
  O     -118.645     114.618     -13.132
  O     -119.101     112.064     -12.817
  O     -118.915     113.662     -10.837
  H     -118.307     112.936     -10.594
  H     -116.846     115.306     -13.816
  H     -117.032     113.569     -13.822
  H     -116.783     114.416     -12.314

 6  7  8  9  10  11  12  13  14  15  25  28  32  33  34  35 0
 6-311+G(2d,p)
 ****
 36  39  40 0
 6-311+G(2d,p)
 ****
 1  2  3  4  5  16  17  18  19  20  21  22  23  24 0
 3-21G
 ****
 26  27  29  30  31  37  38  41  42  43  44  45  46  47 0
 3-21G
 ****
 48 0
 3-21G
 ****


