%nproc=1
%NoSave
%Mem=1900MB
#P OB98/GEN NMR

erre ene a

0 1
  C     -351.422     -53.027     153.882
  O     -351.806     -52.508     152.624
  H     -351.952     -53.970     154.050
  H     -351.682     -52.332     154.685
  H     -350.346     -53.227     153.895
  P     -351.297     -51.049     152.200
  C     -348.981     -51.340     151.104
  O     -350.384     -51.248     150.892
  C     -348.216     -51.096     149.798
  O     -348.483     -52.204     148.895
  C     -348.616     -49.795     149.088
  O     -347.441     -49.227     148.500
  C     -349.567     -50.283     148.014
  O     -349.645     -49.372     146.933
  C     -348.991     -51.656     147.663
  N     -350.010     -52.522     147.060
  C     -350.390     -52.216     145.747
  O     -349.861     -51.274     145.150
  N     -351.399     -52.939     145.162
  C     -352.019     -53.849     145.846
  N     -353.034     -54.503     145.220
  C     -351.673     -54.187     147.245
  C     -350.667     -53.491     147.782
  O     -350.665     -50.233     153.281
  O     -352.612     -50.342     151.620
  H     -348.923     -49.563     146.295
  H     -353.079     -49.868     152.336
  H     -352.224     -54.951     147.773
  H     -350.349     -53.664     148.807
  H     -348.152     -51.561     146.963
  H     -350.577     -50.390     148.438
  H     -349.087     -49.070     149.757
  H     -347.139     -51.114     150.015
  H     -353.254     -54.220     144.271
  H     -348.762     -52.346     151.473
  H     -353.615     -55.201     145.665
  H     -348.670     -50.611     151.860
  P     -346.793     -47.884     149.099
  C     -346.201     -48.796     151.419
  O     -345.682     -48.286     150.194
  O     -347.781     -46.865     149.562
  O     -345.912     -47.309     147.886
  H     -345.877     -46.333     147.946
  H     -345.392     -49.033     152.078
  H     -346.773     -49.679     151.224
  H     -346.828     -48.059     151.875

 6  7  8  9  10  11  12  13  14  15  16  26  30  31  32  33  35 0
 6-311+G(2d,p)
 ****
 37  38 0
 6-311+G(2d,p)
 ****
 1  2  3  4  5  17  18  19  20  21  22  23  24  25 0
 3-21G
 ****
 27  28  29  34  36  39  40  41  42  43  44  45  46 0
 3-21G
 ****


