%nproc=1
%NoSave
%Mem=1900MB
#P OB98/GEN NMR

erre ene a

0 1
  C     -784.875     128.076    -635.175
  O     -784.623     129.018    -634.154
  H     -784.963     127.084    -634.724
  H     -784.046     128.065    -635.887
  H     -785.808     128.317    -635.694
  P     -784.452     130.547    -634.606
  C     -786.652     131.052    -633.334
  O     -785.915     131.205    -634.540
  C     -787.768     132.102    -633.244
  O     -787.184     133.430    -633.428
  C     -788.864     131.929    -634.309
  O     -790.129     132.255    -633.719
  C     -788.513     132.986    -635.337
  O     -789.634     133.365    -636.123
  C     -787.964     134.089    -634.438
  N     -788.196     138.341    -637.127
  C     -789.191     137.647    -636.463
  N     -790.446     138.146    -636.525
  N     -788.974     136.548    -635.800
  C     -787.674     136.165    -635.800
  C     -786.606     136.750    -636.424
  C     -786.863     137.965    -637.176
  O     -786.032     138.617    -637.803
  N     -785.447     136.047    -636.205
  C     -785.821     135.019    -635.463
  N     -787.164     135.048    -635.181
  O     -784.173     130.444    -636.178
  O     -783.383     131.316    -633.892
  H     -790.014     132.553    -636.525
  H     -783.606     131.183    -636.484
  H     -788.421     139.181    -637.635
  H     -785.166     134.229    -635.097
  H     -788.757     134.659    -633.942
  H     -787.732     132.611    -636.018
  H     -790.674     139.013    -636.988
  H     -788.904     130.928    -634.733
  H     -791.183     137.663    -636.034
  H     -788.189     132.089    -632.237
  H     -785.967     131.172    -632.482
  H     -787.093     130.048    -633.295
  P     -790.875     131.111    -632.875
  C     -791.437     132.602    -630.818
  O     -790.736     131.465    -631.310
  O     -789.901     129.854    -633.055
  O     -792.258     130.813    -633.347
  H     -790.332     129.196    -633.636
  H     -791.250     132.710    -629.770
  H     -792.486     132.472    -630.982
  H     -791.101     133.478    -631.332

 6  7  8  9  10  11  12  13  14  15  26  29  33  34 0
 6-311+G(2d,p)
 ****
 36  38  39  40  41 0
 6-311+G(2d,p)
 ****
 1  2  3  4  5  16  17  18  19  20  21  22  23  24  25 0
 3-21G
 ****
 27  28  30  31  32  35  37  42  43  44  45  46  47 0
 3-21G
 ****
 48  49 0
 3-21G
 ****


