%nproc=1
%NoSave
%Mem=1900MB
#P OB98/GEN NMR

erre ene a

0 1
  C     -112.676    -426.413     -57.812
  O     -112.785    -427.418     -58.803
  H     -113.633    -425.891     -57.739
  H     -111.896    -425.697     -58.086
  H     -112.444    -426.869     -56.848
  P     -111.466    -428.287     -59.096
  C     -112.673    -430.268     -57.966
  O     -111.508    -429.451     -57.983
  C     -112.646    -431.207     -56.754
  O     -112.574    -430.402     -55.552
  C     -113.894    -432.092     -56.648
  O     -113.512    -433.389     -56.178
  C     -114.733    -431.395     -55.586
  O     -115.615    -432.292     -54.923
  C     -113.654    -430.784     -54.690
  N     -115.117    -429.092     -50.102
  C     -114.537    -430.244     -50.496
  N     -114.157    -430.612     -51.746
  C     -114.409    -429.614     -52.623
  C     -114.988    -428.392     -52.363
  C     -115.370    -428.140     -51.033
  N     -115.984    -426.976     -50.627
  N     -115.108    -427.659     -53.536
  C     -114.597    -428.430     -54.473
  N     -114.163    -429.633     -53.968
  O     -110.188    -427.519     -59.169
  O     -111.879    -429.068     -60.429
  H     -115.933    -431.856     -54.103
  H     -112.791    -429.416     -60.371
  H     -114.349    -430.970     -49.713
  H     -114.512    -428.171     -55.522
  H     -113.275    -431.497     -53.944
  H     -115.334    -430.607     -56.056
  H     -114.426    -432.186     -57.593
  H     -111.733    -431.811     -56.796
  H     -112.732    -430.858     -58.889
  H     -116.203    -426.874     -49.645
  H     -116.155    -426.252     -51.308
  H     -113.546    -429.609     -57.919
  P     -112.871    -434.409     -57.220
  C     -110.556    -434.630     -56.093
  O     -111.273    -434.201     -57.249
  O     -113.527    -434.485     -58.561
  O     -113.008    -435.819     -56.453
  H     -113.218    -436.517     -57.108
  H     -109.512    -434.441     -56.230
  H     -110.712    -435.678     -55.945
  H     -110.906    -434.093     -55.236

 6  7  8  9  10  11  12  13  14  15  25  28  32  33  34  35 0
 6-311+G(2d,p)
 ****
 36  39  40 0
 6-311+G(2d,p)
 ****
 1  2  3  4  5  16  17  18  19  20  21  22  23  24 0
 3-21G
 ****
 26  27  29  30  31  37  38  41  42  43  44  45  46  47 0
 3-21G
 ****
 48 0
 3-21G
 ****


