%nproc=1
%NoSave
%Mem=1900MB
#P OB98/GEN NMR

erre ene a

0 1
  C     -184.601     429.796      56.988
  O     -184.047     429.027      58.033
  H     -185.405     429.223      56.521
  H     -183.835     430.005      56.235
  H     -185.014     430.736      57.364
  P     -183.077     429.739      59.087
  C     -183.229     430.381      61.583
  O     -183.942     430.024      60.410
  C     -184.146     430.342      62.812
  O     -185.097     431.435      62.723
  C     -184.964     429.043      62.859
  O     -185.308     428.680      64.192
  C     -186.230     429.418      62.106
  O     -187.344     428.588      62.437
  C     -186.407     430.878      62.512
  N     -190.242     434.119      61.620
  C     -189.967     433.383      62.757
  N     -190.823     433.535      63.798
  N     -188.956     432.562      62.861
  C     -188.225     432.455      61.725
  C     -188.415     433.110      60.529
  C     -189.513     434.048      60.441
  O     -189.817     434.705      59.449
  N     -187.474     432.738      59.598
  C     -186.724     431.856      60.227
  N     -187.124     431.666      61.527
  O     -182.878     431.211      58.482
  O     -181.761     429.058      59.320
  H     -187.478     428.650      63.398
  H     -182.059     431.612      58.826
  H     -191.013     434.761      61.603
  H     -185.875     431.339      59.795
  H     -186.958     430.954      63.458
  H     -186.040     429.293      61.037
  H     -191.710     434.005      63.687
  H     -184.455     428.213      62.385
  H     -190.821     432.789      64.497
  H     -183.562     430.503      63.724
  H     -182.838     431.390      61.425
  H     -182.367     429.721      61.722
  P     -184.198     427.966      65.101
  C     -182.156     429.522      65.755
  O     -183.462     429.051      66.014
  O     -183.075     427.521      64.056
  O     -184.708     426.806      65.902
  H     -183.008     426.550      64.022
  H     -181.881     430.240      66.500
  H     -182.128     429.982      64.789
  H     -181.470     428.702      65.780

 6  7  8  9  10  11  12  13  14  15  26  29  33  34 0
 6-311+G(2d,p)
 ****
 36  38  39  40  41 0
 6-311+G(2d,p)
 ****
 1  2  3  4  5  16  17  18  19  20  21  22  23  24  25 0
 3-21G
 ****
 27  28  30  31  32  35  37  42  43  44  45  46  47 0
 3-21G
 ****
 48  49 0
 3-21G
 ****


