%nproc=1
%NoSave
%Mem=1900MB
#P OB98/GEN NMR

erre ene a

0 1
  C     -148.947     397.127     -82.750
  O     -147.837     397.473     -83.560
  P     -147.152     396.307     -84.430
  C     -144.877     397.121     -83.382
  O     -145.722     396.044     -83.756
  C     -144.095     396.770     -82.113
  O     -144.993     396.721     -80.980
  C     -143.419     395.406     -82.146
  O     -142.226     395.434     -82.920
  C     -143.195     395.148     -80.655
  O     -142.039     395.864     -80.192
  C     -144.479     395.756     -80.046
  N     -145.487     394.755     -79.702
  C     -145.490     394.316     -78.383
  O     -144.708     394.732     -77.530
  N     -146.427     393.361     -78.082
  C     -147.290     392.765     -78.956
  O     -148.077     391.879     -78.637
  C     -147.211     393.248     -80.342
  C     -146.328     394.200     -80.646
  O     -146.827     397.102     -85.780
  O     -148.027     395.108     -84.589
  H     -146.702     398.053     -85.621
  H     -141.312     395.650     -80.812
  H     -146.467     393.041     -77.118
  H     -147.871     392.794     -81.069
  H     -146.250     394.562     -81.664
  H     -144.227     396.316     -79.134
  H     -143.046     394.087     -80.430
  H     -144.104     394.655     -82.552
  H     -143.360     397.563     -81.930
  H     -145.490     398.007     -83.201
  H     -144.191     397.337     -84.204
  P     -141.676     394.007     -83.437
  C     -139.214     394.824     -83.103
  O     -140.204     393.850     -82.826
  O     -141.438     394.306     -84.997
  O     -142.609     392.868     -83.160
  H     -141.031     395.173     -85.149
  H     -138.426     394.747     -82.351
  H     -139.628     395.832     -83.082
  H     -138.777     394.628     -84.091
  H     -149.296     397.996     -82.233
  H     -148.652     396.384     -82.039
  H     -149.731     396.740     -83.366

 3  4  5  6  7  8  9  10  11  12  13  24  28  29  30  31  32 0
 6-311+G(2d,p)
 ****
 33  34 0
 6-311+G(2d,p)
 ****
 1  2  14  15  16  17  18  19  20  21  22  23  25  26  27 0
 3-21G
 ****
 35  36  37  38  39  40  41  42  43  44  45 0
 3-21G
 ****


