%nproc=1
%NoSave
%Mem=1900MB
#P OB98/GEN NMR

erre ene a

0 1
  C     -324.989    -178.530     164.089
  O     -323.956    -179.038     163.265
  H     -325.013    -177.439     164.033
  H     -325.946    -178.923     163.734
  H     -324.835    -178.850     165.123
  P     -322.464    -178.549     163.591
  C     -321.556    -180.858     164.343
  O     -321.888    -179.530     164.730
  C     -322.266    -181.862     165.251
  O     -323.688    -181.582     165.212
  C     -322.057    -183.336     164.870
  O     -321.488    -184.056     165.964
  C     -323.462    -183.868     164.629
  O     -323.665    -185.182     165.136
  C     -324.352    -182.848     165.327
  N     -329.176    -184.408     165.822
  C     -328.187    -184.276     166.728
  N     -326.954    -183.753     166.557
  C     -326.800    -183.311     165.293
  C     -327.732    -183.353     164.266
  C     -328.967    -183.950     164.563
  N     -329.958    -184.134     163.630
  N     -327.202    -182.810     163.107
  C     -325.963    -182.489     163.416
  N     -325.671    -182.791     164.722
  O     -322.695    -177.165     164.371
  O     -321.581    -178.372     162.402
  H     -324.586    -185.423     164.928
  H     -322.109    -176.480     163.999
  H     -328.405    -184.650     167.727
  H     -325.227    -182.081     162.735
  H     -324.476    -183.071     166.394
  H     -323.651    -183.882     163.545
  H     -321.430    -183.456     163.980
  H     -321.932    -181.685     166.286
  H     -320.473    -181.004     164.437
  H     -330.764    -184.672     163.897
  H     -329.765    -183.897     162.665
  H     -321.842    -181.011     163.300
  P     -319.881    -184.147     166.016
  C     -319.259    -184.764     168.467
  O     -319.423    -183.738     167.500
  O     -319.430    -182.887     165.129
  O     -319.329    -185.426     165.488
  H     -318.552    -183.054     164.734
  H     -318.954    -184.332     169.397
  H     -318.513    -185.454     168.132
  H     -320.187    -185.280     168.601

 6  7  8  9  10  11  12  13  14  15  25  28  32  33  34  35 0
 6-311+G(2d,p)
 ****
 36  39  40 0
 6-311+G(2d,p)
 ****
 1  2  3  4  5  16  17  18  19  20  21  22  23  24 0
 3-21G
 ****
 26  27  29  30  31  37  38  41  42  43  44  45  46  47  48 0
 3-21G
 ****


