%nproc=1
%NoSave
%Mem=1900MB
#P OB98/GEN NMR

erre ene a

0 1
  C      410.841     132.688     -28.276
  O      410.413     133.850     -27.558
  P      409.622     134.980     -28.380
  C      411.611     136.330     -29.357
  O      410.527     135.448     -29.620
  C      412.581     136.390     -30.548
  O      413.342     137.635     -30.526
  C      413.602     135.250     -30.565
  O      413.939     134.967     -31.925
  C      414.806     135.867     -29.882
  O      416.007     135.146     -30.164
  C      414.743     137.286     -30.449
  N      419.324     139.062     -29.282
  C      418.953     138.044     -30.143
  N      419.953     137.431     -30.819
  N      417.717     137.659     -30.329
  C      416.821     138.390     -29.613
  C      417.064     139.407     -28.723
  C      418.434     139.806     -28.510
  O      418.822     140.690     -27.752
  N      415.896     139.882     -28.173
  C      414.949     139.142     -28.725
  N      415.461     138.242     -29.629
  O      409.660     136.238     -27.389
  O      408.214     134.604     -28.717
  H      416.679     135.433     -29.508
  H      408.776     136.390     -27.012
  H      420.291     139.307     -29.173
  H      413.900     139.210     -28.509
  H      415.166     137.352     -31.459
  H      414.656     135.875     -28.794
  H      420.919     137.712     -30.760
  H      413.265     134.325     -30.078
  H      419.704     136.712     -31.487
  H      411.999     136.382     -31.473
  H      412.150     136.009     -28.463
  H      411.209     137.321     -29.119
  P      413.398     133.588     -32.541
  C      415.235     132.105     -31.449
  O      413.856     132.436     -31.524
  O      414.334     133.355     -33.821
  O      411.948     133.592     -32.894
  H      413.872     132.796     -34.475
  H      415.657     132.545     -30.538
  H      415.789     132.468     -32.321
  H      415.330     131.019     -31.399
  H      411.351     132.024     -27.609
  H      411.503     132.980     -29.064
  H      409.989     132.191     -28.691

 3  4  5  6  7  8  9  10  11  12  23  26  30  31 0
 6-311+G(2d,p)
 ****
 33  35  36  37  38 0
 6-311+G(2d,p)
 ****
 1  2  13  14  15  16  17  18  19  20  21  22  24  25 0
 3-21G
 ****
 27  28  29  32  34  39  40  41  42  43  44  45  46  47  48  49 0
 3-21G
 ****


