%nproc=1
%NoSave
%Mem=1900MB
#P OB98/GEN NMR

erre ene a

0 1
  C     -850.797    1154.125     742.233
  O     -849.555    1153.478     742.044
  H     -851.422    1153.503     742.877
  H     -851.302    1154.267     741.283
  H     -850.645    1155.096     742.729
  P     -848.528    1154.193     741.033
  C     -848.754    1152.379     739.169
  O     -847.942    1152.967     740.168
  C     -847.925    1151.406     738.327
  O     -846.884    1152.110     737.609
  C     -847.213    1150.331     739.135
  O     -848.056    1149.267     739.542
  C     -846.191    1149.859     738.092
  O     -846.864    1149.056     737.097
  C     -845.750    1151.219     737.498
  N     -844.583    1151.793     738.195
  C     -843.377    1151.055     738.102
  O     -843.336    1150.006     737.469
  N     -842.269    1151.529     738.754
  C     -842.342    1152.640     739.427
  N     -841.220    1153.056     740.066
  C     -843.584    1153.456     739.552
  C     -844.640    1152.966     738.907
  O     -847.297    1154.590     741.970
  O     -849.087    1155.319     740.221
  H     -846.263    1149.000     736.334
  H     -846.539    1154.912     741.419
  H     -843.586    1154.353     740.128
  H     -845.595    1153.501     738.952
  H     -845.510    1151.113     736.434
  H     -845.378    1149.259     738.510
  H     -846.667    1150.753     739.976
  H     -848.603    1150.961     737.577
  H     -840.396    1152.467     740.005
  H     -849.160    1153.171     738.541
  H     -841.190    1153.834     740.724
  H     -849.581    1151.836     739.639
  P     -848.260    1149.061     741.122
  C     -848.026    1146.530     740.572
  O     -848.669    1147.524     741.338
  O     -849.609    1149.867     741.429
  O     -847.115    1149.540     741.984
  H     -849.585    1150.271     742.317
  H     -848.413    1145.569     740.838
  H     -846.974    1146.557     740.764
  H     -848.203    1146.711     739.532

 6  7  8  9  10  11  12  13  14  15  16  26  30  31  32  33  35 0
 6-311+G(2d,p)
 ****
 37  38 0
 6-311+G(2d,p)
 ****
 1  2  3  4  5  17  18  19  20  21  22  23  24  25 0
 3-21G
 ****
 27  28  29  34  36  39  40  41  42  43  44  45  46 0
 3-21G
 ****


