%nproc=1
%NoSave
%Mem=1900MB
#P OB98/GEN NMR

erre ene a

0 1
  C     -280.634      88.283    -335.820
  O     -279.876      88.802    -334.747
  H     -281.645      88.072    -335.463
  H     -280.192      87.354    -336.191
  H     -280.694      89.015    -336.630
  P     -278.316      89.086    -334.981
  C     -277.573      86.737    -334.194
  O     -277.627      87.667    -335.267
  C     -276.770      85.490    -334.594
  O     -277.539      84.732    -335.574
  C     -275.404      85.808    -335.232
  O     -274.526      84.725    -334.915
  C     -275.757      85.799    -336.705
  O     -274.605      85.745    -337.511
  C     -276.717      84.607    -336.757
  N     -277.515      84.582    -337.973
  C     -276.848      84.202    -339.139
  O     -275.649      83.929    -339.111
  N     -277.549      84.178    -340.318
  C     -278.786      84.560    -340.341
  N     -279.418      84.526    -341.543
  C     -279.514      85.025    -339.140
  C     -278.824      85.002    -337.997
  O     -277.643      89.910    -333.935
  O     -278.265      89.807    -336.409
  H     -274.097      86.584    -337.457
  H     -278.107      90.761    -336.294
  H     -280.542      85.350    -339.215
  H     -279.271      85.326    -337.062
  H     -276.170      83.662    -336.676
  H     -276.282      86.720    -336.981
  H     -274.982      86.757    -334.886
  H     -276.654      84.850    -333.714
  H     -278.878      84.214    -342.344
  H     -278.601      86.455    -333.951
  H     -280.375      84.816    -341.687
  H     -277.116      87.201    -333.317
  P     -273.404      84.817    -333.769
  C     -271.906      86.152    -335.390
  O     -272.438      86.058    -334.068
  O     -272.685      83.534    -333.514
  O     -274.200      85.277    -332.456
  H     -273.760      84.904    -331.666
  H     -271.281      87.017    -335.462
  H     -272.709      86.233    -336.093
  H     -271.330      85.277    -335.606

 6  7  8  9  10  11  12  13  14  15  16  26  30  31  32  33  35 0
 6-311+G(2d,p)
 ****
 37  38 0
 6-311+G(2d,p)
 ****
 1  2  3  4  5  17  18  19  20  21  22  23  24  25 0
 3-21G
 ****
 27  28  29  34  36  39  40  41  42  43  44  45  46 0
 3-21G
 ****


