%nproc=1
%NoSave
%Mem=1900MB
#P OB98/GEN NMR

erre ene a

0 1
  C     -457.285     513.172    -894.700
  O     -457.804     514.464    -894.510
  P     -459.146     514.584    -893.630
  C     -460.601     512.711    -894.700
  O     -460.362     514.119    -894.570
  C     -462.091     512.437    -894.800
  O     -462.736     512.666    -893.520
  C     -462.815     513.367    -895.800
  O     -462.597     512.946    -897.140
  C     -464.266     513.198    -895.320
  O     -464.895     512.071    -895.940
  C     -464.115     513.001    -893.800
  N     -464.555     514.137    -893.010
  C     -465.950     514.325    -892.910
  O     -466.700     513.540    -893.490
  N     -466.406     515.421    -892.210
  C     -465.575     516.231    -891.630
  N     -466.065     517.271    -890.940
  C     -464.092     516.082    -891.740
  C     -463.681     515.003    -892.440
  O     -459.362     516.189    -893.500
  O     -459.075     513.935    -892.260
  H     -465.771     511.992    -895.540
  H     -459.861     516.418    -892.690
  H     -463.431     516.804    -891.270
  H     -462.593     514.826    -892.560
  H     -464.702     512.112    -893.470
  H     -464.878     514.080    -895.590
  H     -462.501     514.398    -895.640
  H     -462.238     511.397    -895.080
  H     -467.096     517.358    -890.920
  H     -460.223     512.190    -893.800
  H     -465.508     517.945    -890.470
  H     -460.061     512.346    -895.560
  P     -461.628     513.846    -898.020
  C     -462.940     516.004    -897.420
  O     -462.557     515.114    -898.460
  O     -461.541     513.021    -899.400
  O     -460.261     514.188    -897.460
  H     -460.892     513.428    -900.000
  H     -463.408     516.874    -897.890
  H     -462.039     516.347    -896.890
  H     -463.631     515.510    -896.730
  H     -456.399     513.228    -895.297
  H     -458.013     512.565    -895.197
  H     -457.048     512.739    -893.750

 3  4  5  6  7  8  9  10  11  12  13  21  23  27  28  29  30  32 0
 6-311+G(2d,p)
 ****
 34  35 0
 6-311+G(2d,p)
 ****
 1  2  14  15  16  17  18  19  20  22  24  25  26 0
 3-21G
 ****
 31  33  36  37  38  39  40  41  42  43  44  45  46 0
 3-21G
 ****


