%nproc=1
%NoSave
%Mem=1900MB
#P OB98/GEN NMR

erre ene a

0 1
  C      -37.286     -63.603     124.310
  O      -36.595     -62.463     123.798
  P      -35.099     -62.168     124.289
  C      -35.522     -60.716     126.377
  O      -35.101     -61.978     125.882
  C      -34.714     -60.313     127.620
  O      -35.059     -61.182     128.732
  C      -33.197     -60.402     127.403
  O      -32.506     -59.212     127.782
  C      -32.806     -61.664     128.152
  O      -31.440     -61.678     128.539
  C      -33.843     -61.724     129.279
  N      -34.022     -63.088     129.786
  C      -32.904     -63.702     130.333
  O      -31.786     -63.187     130.336
  N      -33.093     -64.965     130.827
  C      -34.248     -65.685     130.756
  O      -34.355     -66.831     131.172
  C      -35.382     -65.008     130.109
  C      -35.219     -63.761     129.662
  O      -34.362     -61.118     123.527
  O      -34.381     -63.597     124.118
  H      -31.290     -60.942     129.171
  H      -33.472     -63.439     123.795
  H      -32.293     -65.417     131.244
  H      -36.308     -65.557     130.015
  H      -36.032     -63.244     129.170
  H      -33.539     -61.101     130.125
  H      -32.961     -62.522     127.486
  H      -32.952     -60.522     126.342
  H      -35.004     -59.290     127.878
  H      -36.578     -60.764     126.642
  H      -35.441     -59.968     125.580
  P      -31.991     -58.097     126.758
  C      -29.457     -58.629     126.662
  O      -30.704     -58.669     125.999
  O      -31.833     -56.724     127.317
  O      -33.122     -58.103     125.621
  H      -33.300     -57.187     125.341
  H      -28.661     -58.694     125.916
  H      -29.377     -59.485     127.338
  H      -29.335     -57.701     127.227
  H      -38.265     -63.649     123.881
  H      -37.367     -63.523     125.374
  H      -36.744     -64.491     124.059

 3  4  5  6  7  8  9  10  11  12  13  23  28  29  30  31  32 0
 6-311+G(2d,p)
 ****
 33  34 0
 6-311+G(2d,p)
 ****
 1  2  14  15  16  17  18  19  20  21  22  24  25  26  27 0
 3-21G
 ****
 35  36  37  38  39  40  41  42  43  44  45 0
 3-21G
 ****


