%nproc=1
%NoSave
%Mem=1900MB
#P OB98/GEN NMR

erre ene a

0 1
  C        8.780      16.105     -52.660
  O        8.966      15.136     -53.695
  P        7.629      14.499     -54.314
  C        7.668      14.381     -56.902
  O        8.025      13.753     -55.680
  C        8.599      15.555     -57.222
  O        9.987      15.113     -57.304
  C        8.276      16.257     -58.545
  O        8.571      17.649     -58.363
  C        9.291      15.658     -59.500
  O        9.457      16.463     -60.664
  C       10.503      15.573     -58.574
  N       13.553      14.579     -62.471
  C       12.532      15.503     -62.355
  N       12.327      16.314     -63.413
  N       11.782      15.620     -61.290
  C       12.128      14.768     -60.294
  C       13.125      13.821     -60.285
  C       13.929      13.680     -61.481
  O       14.846      12.883     -61.635
  N       13.189      13.169     -59.075
  C       12.182      13.682     -58.388
  N       11.545      14.690     -59.060
  O        6.806      15.782     -54.802
  O        6.850      13.676     -53.340
  H       10.141      16.036     -61.223
  H        6.112      16.002     -54.154
  H       14.089      14.520     -63.321
  H       11.890      13.379     -57.396
  H       10.976      16.552     -58.419
  H        8.969      14.658     -59.816
  H       12.900      16.310     -64.242
  H        7.245      16.130     -58.886
  H       11.611      17.027     -63.336
  H        8.536      16.276     -56.397
  H        6.640      14.747     -56.846
  H        7.680      13.636     -57.704
  P        7.374      18.617     -57.924
  C        8.541      19.885     -55.996
  O        8.028      19.941     -57.311
  O        6.760      17.874     -56.642
  O        6.327      18.827     -58.970
  H        5.789      17.958     -56.651
  H        9.326      20.636     -55.892
  H        8.961      18.902     -55.763
  H        7.741      20.111     -55.285
  H        9.733      16.458     -52.326
  H        8.259      15.656     -51.840
  H        8.208      16.926     -53.039

 3  4  5  6  7  8  9  10  11  12  23  26  30  31 0
 6-311+G(2d,p)
 ****
 33  35  36  37  38 0
 6-311+G(2d,p)
 ****
 1  2  13  14  15  16  17  18  19  20  21  22  24  25 0
 3-21G
 ****
 27  28  29  32  34  39  40  41  42  43  44  45  46  47  48  49 0
 3-21G
 ****


