%nproc=1
%NoSave
%Mem=1900MB
#P OB98/GEN NMR

erre ene a

0 1
  C     -186.470     147.121     131.629
  O     -185.404     148.047     131.679
  H     -187.306     147.517     132.210
  H     -186.157     146.170     132.067
  H     -186.800     146.966     130.598
  P     -184.157     147.785     130.705
  C     -185.075     148.717     128.459
  O     -184.217     148.922     129.571
  C     -184.412     149.241     127.185
  O     -185.072     148.635     126.037
  C     -184.502     150.763     127.015
  O     -183.293     151.221     126.400
  C     -185.651     150.932     126.039
  O     -185.621     152.157     125.320
  C     -185.455     149.702     125.147
  N     -186.660     149.354     124.398
  C     -186.555     148.336     123.455
  O     -185.549     147.655     123.268
  N     -187.679     148.111     122.702
  C     -188.853     148.799     122.781
  O     -189.818     148.562     122.064
  C     -188.900     149.867     123.789
  C     -187.818     150.093     124.536
  O     -184.584     146.458     129.923
  O     -182.833     147.652     131.381
  H     -184.282     145.665     130.404
  H     -186.261     152.079     124.582
  H     -187.619     147.377     122.014
  H     -189.812     150.442     123.873
  H     -187.812     150.889     125.274
  H     -184.623     149.863     124.453
  H     -186.605     150.877     126.575
  H     -184.671     151.309     127.949
  H     -183.368     148.906     127.168
  H     -186.013     149.258     128.619
  H     -185.295     147.649     128.364
  P     -182.411     152.288     127.213
  C     -180.625     150.835     128.465
  O     -180.953     151.634     127.337
  O     -183.035     152.152     128.677
  O     -182.464     153.657     126.623
  H     -183.309     151.245     128.891
  H     -179.617     150.487     128.375
  H     -181.289     149.997     128.514
  H     -180.722     151.419     129.356

 6  7  8  9  10  11  12  13  14  15  16  27  31  32  33  34  35 0
 6-311+G(2d,p)
 ****
 36  37 0
 6-311+G(2d,p)
 ****
 1  2  3  4  5  17  18  19  20  21  22  23  24  25 0
 3-21G
 ****
 26  28  29  30  38  39  40  41  42  43  44  45 0
 3-21G
 ****


