%nproc=1
%NoSave
%Mem=1900MB
#P OB98/GEN NMR

erre ene a

0 1
  C     -191.931    -158.975     123.295
  O     -191.586    -157.602     123.429
  P     -191.744    -156.596     122.191
  C     -193.281    -154.947     123.431
  O     -192.011    -155.140     122.815
  C     -193.535    -153.461     123.690
  O     -192.679    -153.022     124.775
  C     -193.238    -152.576     122.482
  O     -194.183    -151.502     122.452
  C     -191.867    -151.991     122.774
  O     -191.682    -150.733     122.100
  C     -191.891    -151.909     124.304
  N     -187.710    -149.303     125.762
  C     -188.885    -148.894     125.237
  N     -189.941    -149.644     124.852
  C     -189.718    -150.943     125.102
  C     -188.572    -151.511     125.641
  C     -187.527    -150.630     125.973
  N     -186.332    -151.047     126.521
  N     -188.697    -152.885     125.722
  C     -189.906    -153.137     125.267
  N     -190.563    -151.998     124.890
  O     -192.730    -157.017     121.154
  O     -190.268    -156.464     121.589
  H     -190.837    -150.356     122.422
  H     -190.300    -156.418     120.613
  H     -188.991    -147.816     125.108
  H     -190.346    -154.122     125.177
  H     -192.366    -150.984     124.655
  H     -191.090    -152.680     122.422
  H     -193.263    -153.125     121.534
  H     -194.577    -153.336     124.020
  H     -193.286    -155.485     124.384
  H     -185.692    -150.334     126.840
  H     -186.264    -152.007     126.836
  H     -194.065    -155.372     122.792
  P     -194.767    -151.118     120.997
  C     -196.999    -150.087     121.850
  O     -195.734    -149.869     121.266
  O     -195.355    -152.302     120.297
  O     -193.465    -150.499     120.295
  H     -192.827    -150.148     120.961
  H     -197.523    -149.125     121.913
  H     -196.884    -150.484     122.861
  H     -197.592    -150.775     121.240
  H     -191.757    -159.479     124.223
  H     -191.331    -159.421     122.529
  H     -192.965    -159.059     123.032

 3  4  5  6  7  8  9  10  11  12  22  25  29  30  31  32 0
 6-311+G(2d,p)
 ****
 33  36  37 0
 6-311+G(2d,p)
 ****
 1  2  13  14  15  16  17  18  19  20  21  23  24  26 0
 3-21G
 ****
 27  28  34  35  38  39  40  41  42  43  44  45  46  47  48 0
 3-21G
 ****


