%nproc=1
%NoSave
%Mem=1900MB
#P OB98/GEN NMR

erre ene a

0 1
  C     -503.319    1099.855    -897.180
  O     -502.239    1100.368    -897.930
  P     -502.105    1101.952    -898.250
  C     -500.835    1102.467    -896.030
  O     -500.743    1102.453    -897.470
  C     -499.423    1102.522    -895.480
  O     -498.685    1101.298    -895.610
  C     -498.482    1103.579    -896.180
  O     -498.889    1104.948    -896.060
  C     -497.120    1103.182    -895.660
  O     -496.872    1103.698    -894.340
  C     -497.249    1101.612    -895.600
  N     -496.551    1100.973    -896.730
  C     -495.166    1101.049    -896.630
  O     -494.523    1101.607    -895.720
  N     -494.467    1100.473    -897.700
  C     -495.070    1099.918    -898.840
  O     -494.379    1099.493    -899.750
  C     -496.528    1099.875    -898.820
  C     -497.201    1100.397    -897.820
  O     -503.325    1102.728    -897.930
  O     -501.643    1101.981    -899.810
  H     -496.064    1103.289    -894.030
  H     -500.811    1101.531    -900.000
  H     -493.466    1100.552    -897.720
  H     -497.021    1099.433    -899.670
  H     -498.310    1100.398    -897.780
  H     -496.864    1101.234    -894.660
  H     -496.325    1103.531    -896.300
  H     -498.548    1103.342    -897.260
  H     -499.491    1102.773    -894.370
  H     -501.308    1101.565    -895.710
  H     -501.432    1103.331    -895.750
  P     -498.297    1106.114    -897.030
  C     -500.158    1105.823    -898.890
  O     -499.514    1106.683    -897.860
  O     -496.978    1105.841    -897.730
  O     -498.068    1107.307    -895.940
  H     -497.295    1107.855    -896.230
  H     -500.903    1106.430    -899.390
  H     -500.622    1104.969    -898.360
  H     -499.392    1105.504    -899.570
  H     -503.216    1098.794    -897.086
  H     -504.239    1100.081    -897.678
  H     -503.321    1100.301    -896.207

 3  4  5  6  7  8  9  10  11  12  13  23  28  29  30  31  32 0
 6-311+G(2d,p)
 ****
 33  34 0
 6-311+G(2d,p)
 ****
 1  2  14  15  16  17  18  19  20  21  22  24  25  26  27 0
 3-21G
 ****
 35  36  37  38  39  40  41  42  43  44  45 0
 3-21G
 ****


