%nproc=1
%NoSave
%Mem=1900MB
#P OB98/GEN NMR

erre ene a

0 1
  C      161.794    -398.661     -71.536
  O      161.910    -399.816     -70.734
  H      162.556    -398.700     -72.318
  H      161.960    -397.769     -70.925
  H      160.810    -398.604     -72.008
  P      160.709    -400.193     -69.748
  C      160.325    -402.661     -70.396
  O      159.839    -401.330     -70.473
  C      159.195    -403.675     -70.608
  O      158.172    -403.479     -69.604
  C      158.530    -403.454     -71.970
  O      157.981    -404.656     -72.502
  C      157.398    -402.493     -71.639
  O      156.352    -402.510     -72.605
  C      156.984    -402.995     -70.258
  N      152.628    -401.129     -68.389
  C      152.822    -402.132     -69.318
  N      151.707    -402.697     -69.833
  N      154.000    -402.532     -69.716
  C      155.021    -401.827     -69.174
  C      154.954    -400.797     -68.264
  C      153.646    -400.390     -67.800
  O      153.413    -399.495     -66.993
  N      156.202    -400.315     -67.959
  C      157.022    -401.046     -68.687
  N      156.354    -401.988     -69.432
  O      159.742    -398.917     -69.820
  O      161.102    -400.502     -68.334
  H      156.055    -403.435     -72.699
  H      159.207    -398.850     -69.010
  H      151.700    -400.871     -68.106
  H      158.100    -400.939     -68.708
  H      156.282    -403.835     -70.345
  H      157.805    -401.477     -71.619
  H      150.788    -402.306     -69.689
  H      159.220    -403.025     -72.699
  H      151.820    -403.212     -70.709
  H      159.573    -404.695     -70.484
  H      160.759    -402.791     -69.398
  H      161.124    -402.815     -71.124
  P      158.772    -405.364     -73.700
  C      159.688    -407.425     -72.363
  O      159.963    -406.226     -73.060
  O      159.513    -404.151     -74.430
  O      157.892    -406.127     -74.633
  H      159.067    -403.939     -75.271
  H      160.604    -407.852     -72.013
  H      159.200    -408.115     -73.019
  H      159.051    -407.215     -71.529

 6  7  8  9  10  11  12  13  14  15  26  29  33  34 0
 6-311+G(2d,p)
 ****
 36  38  39  40  41 0
 6-311+G(2d,p)
 ****
 1  2  3  4  5  16  17  18  19  20  21  22  23  24  25 0
 3-21G
 ****
 27  28  30  31  32  35  37  42  43  44  45  46  47 0
 3-21G
 ****
 48  49 0
 3-21G
 ****


