%nproc=1
%NoSave
%Mem=1900MB
#P OB98/GEN NMR

erre ene a

0 1
  C       26.530     -68.438     -33.902
  O       27.494     -67.648     -33.228
  P       27.865     -68.062     -31.722
  C       26.599     -67.916     -29.455
  O       26.691     -67.471     -30.805
  C       26.330     -66.738     -28.524
  O       27.449     -65.835     -28.534
  C       25.124     -65.901     -28.919
  O       23.925     -66.546     -28.542
  C       25.397     -64.607     -28.162
  O       24.890     -64.677     -26.819
  C       26.942     -64.532     -28.165
  N       27.449     -63.495     -29.048
  C       27.922     -62.337     -28.417
  O       27.873     -62.238     -27.191
  N       28.398     -61.312     -29.197
  C       28.397     -61.432     -30.487
  N       28.886     -60.386     -31.209
  C       27.889     -62.627     -31.190
  C       27.428     -63.608     -30.417
  O       29.113     -67.124     -31.385
  O       28.172     -69.510     -31.531
  H       25.305     -65.471     -26.422
  H       29.680     -67.531     -30.702
  H       27.910     -62.676     -32.269
  H       27.035     -64.520     -30.851
  H       27.315     -64.330     -27.154
  H       24.916     -63.747     -28.638
  H       25.129     -65.706     -29.998
  H       26.211     -67.127     -27.504
  H       29.220     -59.579     -30.699
  H       27.542     -68.387     -29.165
  H       28.948     -60.391     -32.217
  H       25.800     -68.661     -29.382
  P       22.575     -66.096     -29.277
  C       21.282     -63.881     -29.234
  O       22.111     -64.768     -28.509
  O       21.521     -67.178     -28.739
  O       22.600     -66.028     -30.767
  H       20.668     -67.068     -29.198
  H       20.916     -63.109     -28.556
  H       20.427     -64.415     -29.657
  H       21.856     -63.405     -30.035
  H       26.380     -68.053     -34.889
  H       25.606     -68.409     -33.364
  H       26.876     -69.449     -33.962

 3  4  5  6  7  8  9  10  11  12  13  21  23  27  28  29  30  32 0
 6-311+G(2d,p)
 ****
 34  35 0
 6-311+G(2d,p)
 ****
 1  2  14  15  16  17  18  19  20  22  24  25  26 0
 3-21G
 ****
 31  33  36  37  38  39  40  41  42  43  44  45  46 0
 3-21G
 ****


