%nproc=1
%NoSave
%Mem=1900MB
#P OB98/GEN NMR

erre ene a

0 1
  C     -195.299     346.533    -385.364
  O     -194.457     347.676    -385.339
  P     -194.628     348.705    -384.118
  C     -196.706     349.720    -385.285
  O     -196.177     349.137    -384.098
  C     -197.646     350.872    -384.952
  O     -198.041     351.530    -386.188
  C     -198.930     350.451    -384.222
  O     -199.201     351.374    -383.157
  C     -200.014     350.626    -385.275
  O     -201.297     350.851    -384.694
  C     -199.450     351.817    -386.050
  N     -203.477     353.730    -388.444
  C     -203.060     353.904    -387.138
  N     -203.862     354.642    -386.345
  N     -201.956     353.393    -386.650
  C     -201.237     352.701    -387.569
  C     -201.537     352.463    -388.891
  C     -202.793     352.986    -389.400
  O     -203.257     352.792    -390.520
  N     -200.552     351.731    -389.505
  C     -199.661     351.521    -388.552
  N     -200.049     352.045    -387.349
  O     -193.875     350.014    -384.646
  O     -194.069     348.246    -382.815
  H     -201.593     350.001    -384.328
  H     -193.180     350.272    -384.010
  H     -204.342     354.130    -388.766
  H     -198.737     350.967    -388.685
  H     -199.555     352.741    -385.469
  H     -200.068     349.724    -385.896
  H     -204.703     355.096    -386.662
  H     -198.905     349.426    -383.824
  H     -203.561     354.803    -385.389
  H     -197.094     351.617    -384.359
  H     -197.255     348.961    -385.852
  H     -195.872     350.080    -385.900
  P     -199.432     350.732    -381.702
  C     -201.853     351.640    -381.361
  O     -201.014     350.516    -381.563
  O     -199.120     351.947    -380.707
  O     -198.580     349.534    -381.430
  H     -198.852     351.611    -379.829
  H     -201.312     352.589    -381.488
  H     -202.265     351.600    -380.350
  H     -202.674     351.608    -382.085
  H     -195.074     345.943    -386.228
  H     -196.322     346.844    -385.401
  H     -195.136     345.950    -384.482

 3  4  5  6  7  8  9  10  11  12  23  26  30  31  33  0
 6-311+G(2d,p)
 ****
 35  36  37  38 0
 6-311+G(2d,p)
 ****
 1  2  13  14  15  16  17  18  19  20  21  22  24  25  27  28  29 0
 3-21G
 ****
 32  34  39  40  41  42  43  44  45  46  47  48  49 0
 3-21G
 ****


