%nproc=1
%NoSave
%Mem=1900MB
#P OB98/GEN NMR

erre ene a

0 1
  C       -2.668       9.674     -39.635
  O       -3.349       8.437     -39.423
  P       -4.491       8.071     -40.491
  C       -4.522       5.483     -40.639
  O       -5.105       6.646     -40.073
  C       -3.408       4.932     -39.742
  O       -3.926       4.617     -38.414
  C       -2.755       3.651     -40.286
  O       -1.371       3.708     -39.920
  C       -3.478       2.569     -39.501
  O       -2.819       1.314     -39.538
  C       -3.560       3.247     -38.139
  N       -4.077       0.767     -33.712
  C       -2.992       1.249     -34.356
  N       -2.937       1.897     -35.539
  C       -4.169       2.036     -36.057
  C       -5.368       1.596     -35.520
  C       -5.294       0.931     -34.284
  N       -6.391       0.418     -33.630
  N       -6.425       1.906     -36.363
  C       -5.850       2.455     -37.418
  N       -4.508       2.628     -37.243
  O       -3.668       7.759     -41.826
  O       -5.500       9.155     -40.682
  H       -3.193       0.722     -38.855
  H       -3.679       8.532     -42.421
  H       -2.040       1.089     -33.856
  H       -6.359       2.743     -38.328
  H       -2.590       3.260     -37.625
  H       -4.481       2.425     -39.922
  H       -2.836       3.544     -41.371
  H       -2.648       5.714     -39.617
  H       -4.107       5.712     -41.624
  H       -6.236      -0.048     -32.749
  H       -7.313       0.508     -34.028
  H       -5.305       4.735     -40.803
  P       -0.288       4.076     -41.047
  C        1.431       5.112     -39.450
  O        1.123       4.012     -40.283
  O       -0.509       5.660     -41.158
  O       -0.407       3.348     -42.341
  H       -0.501       6.080     -40.279
  H        2.372       4.906     -38.933
  H        0.643       5.258     -38.708
  H        1.551       6.016     -40.054
  H       -1.934       9.813     -38.869
  H       -3.372      10.479     -39.605
  H       -2.187       9.657     -40.591

 3  4  5  6  7  8  9  10  11  12  22  25  29  30  31  32 0
 6-311+G(2d,p)
 ****
 33  36  37 0
 6-311+G(2d,p)
 ****
 1  2  13  14  15  16  17  18  19  20  21  23  24  26 0
 3-21G
 ****
 27  28  34  35  38  39  40  41  42  43  44  45  46  47  48 0
 3-21G
 ****


