%nproc=1
%NoSave
%Mem=1900MB
#P OB98/GEN NMR

erre ene a

0 1
  C     -101.280       6.412     -12.900
  O     -102.399       6.452     -13.768
  P     -103.877       6.275     -13.180
  C     -103.585       3.689     -13.222
  O     -103.931       4.836     -12.476
  C     -103.549       2.439     -12.333
  O     -102.836       2.778     -11.118
  C     -104.917       1.932     -11.884
  O     -104.776       0.580     -11.441
  C     -105.207       2.827     -10.700
  O     -106.197       2.276      -9.836
  C     -103.805       3.015     -10.069
  N     -103.637       4.371      -9.514
  C     -104.529       4.757      -8.516
  O     -105.374       3.999      -8.044
  N     -104.471       6.070      -8.139
  C     -103.656       7.015      -8.692
  O     -103.827       8.223      -8.569
  C     -102.585       6.500      -9.559
  C     -102.638       5.223      -9.947
  O     -104.763       6.089     -14.499
  O     -104.359       7.408     -12.341
  H     -106.364       2.944      -9.131
  H     -105.163       6.940     -14.758
  H     -105.211       6.385      -7.522
  H     -101.827       7.192      -9.900
  H     -101.890       4.827     -10.629
  H     -103.630       2.295      -9.260
  H     -105.587       3.791     -11.064
  H     -105.694       2.001     -12.650
  H     -102.990       1.645     -12.843
  H     -102.614       3.849     -13.701
  H     -104.307       3.529     -14.031
  P     -106.048      -0.389     -11.576
  C     -106.618      -0.140      -9.083
  O     -107.066       0.040     -10.412
  O     -105.752      -1.848     -11.665
  O     -106.776       0.154     -12.897
  H     -107.381      -0.529     -13.243
  H     -107.098       0.607      -8.445
  H     -105.533      -0.027      -9.007
  H     -106.905      -1.137      -8.739
  H     -100.383       6.547     -13.468
  H     -101.248       5.465     -12.403
  H     -101.364       7.193     -12.174

 3  4  5  6  7  8  9  10  11  12  13  23  28  29  30  31  32 0
 6-311+G(2d,p)
 ****
 33  34 0
 6-311+G(2d,p)
 ****
 1  2  14  15  16  17  18  19  20  21  22  24  25  26  27 0
 3-21G
 ****
 35  36  37  38  39  40  41  42  43  44  45 0
 3-21G
 ****


