%nproc=1
%NoSave
%Mem=1900MB
#P OB98/GEN NMR

erre ene a

0 1
  C      214.917     279.360     -92.591
  O      213.834     280.110     -92.076
  H      214.803     278.319     -92.274
  H      215.870     279.740     -92.212
  H      214.911     279.396     -93.683
  P      213.904     281.709     -92.182
  C      211.349     282.077     -92.118
  O      212.589     282.247     -91.434
  C      210.204     282.750     -91.356
  O      210.580     284.088     -90.975
  C      208.935     282.914     -92.177
  O      208.274     281.697     -92.464
  C      208.197     284.010     -91.425
  O      207.405     283.524     -90.346
  C      209.368     284.861     -90.872
  N      209.479     286.145     -91.556
  C      209.040     287.249     -90.840
  O      208.561     287.187     -89.709
  N      209.127     288.454     -91.487
  C      209.554     288.642     -92.769
  O      209.573     289.744     -93.308
  C      209.983     287.432     -93.485
  C      209.926     286.255     -92.857
  O      214.084     282.262     -93.564
  O      215.080     282.105     -91.175
  H      206.709     282.956     -90.732
  H      215.401     283.026     -91.342
  H      208.826     289.272     -90.980
  H      210.324     287.542     -94.505
  H      210.233     285.342     -93.368
  H      209.216     285.062     -89.805
  H      207.527     284.569     -92.084
  H      209.212     283.340     -93.149
  H      210.015     282.176     -90.441
  H      211.153     281.003     -92.187
  H      211.430     282.487     -93.131
  P      207.536     281.408     -93.852
  C      207.359     278.916     -93.126
  O      206.701     280.039     -93.698
  O      208.334     281.623     -95.094
  O      206.369     282.523     -93.828
  H      206.221     282.810     -94.750
  H      206.683     278.087     -93.089
  H      207.681     279.158     -92.135
  H      208.208     278.658     -93.724

 6  7  8  9  10  11  12  13  14  15  16  26  31  32  33  34  35 0
 6-311+G(2d,p)
 ****
 36  37 0
 6-311+G(2d,p)
 ****
 1  2  3  4  5  17  18  19  20  21  22  23  24  25 0
 3-21G
 ****
 27  28  29  30  38  39  40  41  42  43  44  45 0
 3-21G
 ****


