%nproc=1
%NoSave
%Mem=1900MB
#P OB98/GEN NMR

erre ene a

0 1
  C      -97.627      72.352      25.118
  O      -97.110      73.671      25.077
  P      -96.451      74.243      26.424
  C      -98.282      76.095      26.445
  O      -97.585      75.090      27.173
  C      -99.766      76.074      26.805
  O     -100.229      74.712      26.912
  C     -100.102      76.723      28.141
  O     -100.071      78.137      28.046
  C     -101.486      76.133      28.396
  O     -102.472      76.832      27.621
  C     -101.323      74.695      27.871
  N     -103.294      71.255      31.111
  C     -103.872      72.076      30.206
  N     -103.281      72.981      29.397
  C     -101.953      72.988      29.582
  C     -101.225      72.225      30.481
  C     -101.949      71.322      31.274
  N     -101.356      70.490      32.199
  N      -99.880      72.524      30.406
  C      -99.796      73.443      29.464
  N     -101.019      73.745      28.926
  O      -95.445      75.364      25.887
  O      -95.754      73.221      27.268
  H     -102.585      77.717      28.022
  H      -94.649      75.415      26.451
  H     -104.951      71.996      30.119
  H      -98.878      73.911      29.135
  H     -102.215      74.336      27.348
  H     -101.793      76.191      29.447
  H      -99.405      76.388      28.919
  H     -100.318      76.561      25.992
  H      -98.175      75.909      25.372
  H     -101.963      69.982      32.828
  H     -100.382      70.641      32.417
  H      -97.837      77.069      26.674
  P      -98.959      78.909      28.912
  C     -100.915      80.295      29.842
  O      -99.788      79.495      30.159
  O      -98.700      80.209      28.020
  O      -97.757      78.100      29.252
  H      -99.530      80.640      27.751
  H     -101.410      80.581      30.772
  H     -101.617      79.731      29.221
  H     -100.594      81.200      29.318
  H      -98.034      72.098      24.161
  H      -98.396      72.293      25.859
  H      -96.841      71.668      25.364

 3  4  5  6  7  8  9  10  11  12  22  25  29  30  31  32 0
 6-311+G(2d,p)
 ****
 33  36  37 0
 6-311+G(2d,p)
 ****
 1  2  13  14  15  16  17  18  19  20  21  23  24  26 0
 3-21G
 ****
 27  28  34  35  38  39  40  41  42  43  44  45  46  47  48 0
 3-21G
 ****


