%nproc=1
%NoSave
%Mem=1900MB
#P OB98/GEN NMR

erre ene a

0 1
  C     -388.288    -273.508    -231.794
  O     -389.032    -273.050    -230.684
  H     -387.748    -274.413    -231.507
  H     -387.563    -272.751    -232.106
  H     -388.959    -273.744    -232.623
  P     -389.820    -271.665    -230.860
  C     -391.223    -272.505    -228.841
  O     -390.609    -271.400    -229.490
  C     -391.971    -272.019    -227.602
  O     -393.038    -271.120    -227.996
  C     -392.649    -273.127    -226.810
  O     -391.745    -273.841    -225.982
  C     -393.661    -272.330    -226.007
  O     -393.083    -271.786    -224.812
  C     -394.063    -271.213    -226.989
  N     -395.383    -271.454    -227.570
  C     -396.432    -270.737    -226.999
  O     -396.285    -269.950    -226.065
  N     -397.675    -270.993    -227.512
  C     -397.970    -271.905    -228.480
  O     -399.115    -272.121    -228.857
  C     -396.822    -272.642    -229.035
  C     -395.601    -272.389    -228.559
  O     -390.977    -272.034    -231.902
  O     -388.984    -270.521    -231.333
  H     -390.770    -271.650    -232.774
  H     -393.824    -271.674    -224.183
  H     -398.448    -270.482    -227.111
  H     -397.022    -273.375    -229.806
  H     -394.740    -272.928    -228.945
  H     -394.090    -270.243    -226.476
  H     -394.497    -272.955    -225.706
  H     -393.184    -273.806    -227.485
  H     -391.269    -271.461    -226.968
  H     -390.455    -273.224    -228.531
  H     -391.903    -272.998    -229.541
  P     -392.069    -275.383    -225.680
  C     -389.561    -276.174    -225.818
  O     -390.730    -275.991    -225.036
  O     -392.113    -275.973    -227.165
  O     -393.316    -275.576    -224.884
  H     -391.558    -275.455    -227.775
  H     -388.785    -276.588    -225.208
  H     -389.242    -275.230    -226.209
  H     -389.774    -276.842    -226.626

 6  7  8  9  10  11  12  13  14  15  16  27  31  32  33  34  35 0
 6-311+G(2d,p)
 ****
 36  37 0
 6-311+G(2d,p)
 ****
 1  2  3  4  5  17  18  19  20  21  22  23  24  25 0
 3-21G
 ****
 26  28  29  30  38  39  40  41  42  43  44  45 0
 3-21G
 ****


