%nproc=1
%NoSave
%Mem=1900MB
#P OB98/GEN NMR

erre ene a

0 1
  C       75.636    -242.716     -95.418
  O       75.016    -241.825     -96.327
  P       75.008    -242.155     -97.895
  C       73.459    -244.247     -97.753
  O       74.743    -243.730     -98.038
  C       72.855    -244.939     -98.983
  O       73.656    -246.114     -99.266
  C       71.428    -245.444     -98.795
  O       70.854    -245.674    -100.084
  C       71.655    -246.769     -98.097
  O       70.532    -247.641     -98.210
  C       72.963    -247.277     -98.759
  N       73.812    -248.002     -97.794
  C       73.611    -249.377     -97.687
  O       72.827    -249.998     -98.404
  N       74.280    -250.001     -96.669
  C       75.071    -249.376     -95.745
  O       75.404    -249.882     -94.681
  C       75.429    -247.984     -96.054
  C       74.771    -247.362     -97.034
  O       76.546    -241.988     -98.298
  O       74.119    -241.285     -98.715
  H       70.782    -248.485     -97.769
  H       76.703    -241.097     -98.670
  H       74.023    -250.966     -96.501
  H       76.170    -247.498     -95.433
  H       74.978    -246.313     -97.251
  H       72.747    -247.956     -99.595
  H       71.824    -246.586     -97.027
  H       70.788    -244.779     -98.208
  H       72.920    -244.269     -99.847
  H       72.812    -243.433     -97.414
  H       73.514    -244.965     -96.928
  P       69.256    -245.648    -100.209
  C       69.283    -243.091    -100.449
  O       68.789    -244.195     -99.715
  O       68.529    -246.799     -99.594
  O       69.019    -245.575    -101.793
  H       68.107    -245.851    -102.003
  H       68.553    -242.276    -100.394
  H       69.443    -243.350    -101.501
  H       70.223    -242.755    -100.009
  H       75.542    -242.333     -94.423
  H       76.672    -242.815     -95.666
  H       75.162    -243.673     -95.478

 3  4  5  6  7  8  9  10  11  12  13  23  28  29  30  31  32 0
 6-311+G(2d,p)
 ****
 33  34 0
 6-311+G(2d,p)
 ****
 1  2  14  15  16  17  18  19  20  21  22  24  25  26  27 0
 3-21G
 ****
 35  36  37  38  39  40  41  42  43  44  45 0
 3-21G
 ****


