%nproc=1
%NoSave
%Mem=1900MB
#P OB98/GEN NMR

erre ene a

0 1
  C      197.000     134.323    -192.557
  O      197.367     134.284    -193.922
  H      196.012     134.784    -192.472
  H      197.719     134.926    -191.996
  H      196.956     133.311    -192.143
  P      198.711     133.481    -194.285
  C      199.664     132.760    -196.622
  O      198.935     133.702    -195.858
  C      199.305     132.876    -198.106
  O      197.955     132.386    -198.298
  C      199.362     134.309    -198.641
  O      199.826     134.269    -199.992
  C      197.908     134.747    -198.624
  O      197.656     135.811    -199.536
  C      197.193     133.426    -198.945
  N      195.798     133.425    -198.507
  C      194.906     134.203    -199.252
  O      195.306     134.857    -200.215
  N      193.591     134.257    -198.865
  C      193.211     133.641    -197.788
  N      191.900     133.755    -197.445
  C      194.126     132.846    -196.948
  C      195.390     132.773    -197.366
  O      198.222     131.961    -194.179
  O      199.880     133.814    -193.421
  H      197.956     135.534    -200.430
  H      197.361     131.802    -194.601
  H      193.765     132.359    -196.053
  H      196.128     132.204    -196.815
  H      197.214     133.230    -200.025
  H      197.631     135.093    -197.619
  H      200.010     134.958    -198.047
  H      199.967     132.216    -198.677
  H      191.311     134.328    -198.036
  H      199.451     131.743    -196.278
  H      191.505     133.366    -196.601
  H      200.730     132.953    -196.473
  P      201.362     134.589    -200.308
  C      203.059     133.552    -201.964
  O      201.732     134.029    -201.764
  O      202.332     134.245    -199.228
  O      201.347     136.180    -200.552
  H      202.142     136.554    -200.126
  H      203.167     133.211    -202.972
  H      203.252     132.743    -201.291
  H      203.754     134.344    -201.779

 6  7  8  9  10  11  12  13  14  15  16  26  30  31  32  33  35 0
 6-311+G(2d,p)
 ****
 37  38 0
 6-311+G(2d,p)
 ****
 1  2  3  4  5  17  18  19  20  21  22  23  24  25 0
 3-21G
 ****
 27  28  29  34  36  39  40  41  42  43  44  45  46 0
 3-21G
 ****


