%nproc=1
%NoSave
%Mem=1900MB
#P OB98/GEN NMR

erre ene a

0 1
  C      251.973    -391.905    -133.882
  O      251.019    -390.856    -133.706
  P      251.184    -389.497    -134.534
  C      251.920    -388.081    -132.502
  O      252.249    -388.551    -133.803
  C      253.137    -387.395    -131.870
  O      254.210    -388.339    -131.634
  C      253.748    -386.327    -132.767
  O      252.993    -385.152    -132.970
  C      255.141    -386.170    -132.177
  O      255.139    -385.295    -131.050
  C      255.461    -387.618    -131.739
  N      256.386    -388.296    -132.646
  C      257.626    -387.682    -132.819
  O      257.933    -386.619    -132.293
  N      258.492    -388.327    -133.664
  C      258.235    -389.475    -134.358
  O      259.044    -389.996    -135.118
  C      256.898    -390.059    -134.152
  C      256.049    -389.453    -133.319
  O      249.910    -388.830    -134.940
  O      251.992    -389.980    -135.840
  H      256.032    -385.331    -130.652
  H      251.611    -389.517    -136.614
  H      259.397    -387.902    -133.796
  H      256.659    -390.967    -134.689
  H      255.061    -389.867    -133.153
  H      255.908    -387.626    -130.738
  H      255.845    -385.755    -132.907
  H      253.879    -386.766    -133.770
  H      252.840    -386.980    -130.903
  H      251.587    -388.910    -131.879
  H      251.073    -387.390    -132.574
  P      252.278    -384.791    -134.355
  C      253.945    -383.048    -135.308
  O      253.407    -384.347    -135.405
  O      251.038    -383.960    -134.293
  O      251.885    -386.254    -134.898
  H      251.051    -386.185    -135.401
  H      254.681    -382.917    -136.110
  H      254.446    -382.917    -134.346
  H      253.159    -382.299    -135.429
  H      251.712    -392.733    -133.257
  H      252.947    -391.550    -133.616
  H      251.975    -392.218    -134.905

 3  4  5  6  7  8  9  10  11  12  13  23  28  29  30  31  32 0
 6-311+G(2d,p)
 ****
 33  34 0
 6-311+G(2d,p)
 ****
 1  2  14  15  16  17  18  19  20  21  22  24  25  26  27 0
 3-21G
 ****
 35  36  37  38  39  40  41  42  43  44  45 0
 3-21G
 ****


