%nproc=1
%NoSave
%Mem=1900MB
#P OB98/GEN NMR

erre ene a

0 1
  C      163.480    -335.403     310.528
  O      164.072    -335.265     311.822
  P      163.453    -336.184     312.986
  C      164.318    -337.288     315.168
  O      164.575    -336.366     314.119
  C      165.602    -337.604     315.939
  O      166.598    -338.234     315.110
  C      166.273    -336.368     316.530
  O      165.618    -335.984     317.724
  C      167.695    -336.865     316.759
  O      167.807    -337.574     318.012
  C      167.910    -337.830     315.577
  N      172.470    -336.217     314.056
  C      172.032    -336.571     315.320
  N      172.944    -336.513     316.310
  N      170.811    -336.952     315.581
  C      170.004    -336.964     314.492
  C      170.330    -336.664     313.189
  C      171.688    -336.239     312.909
  O      172.129    -335.938     311.807
  N      169.260    -336.855     312.350
  C      168.262    -337.148     313.160
  N      168.677    -337.294     314.466
  O      163.353    -337.627     312.303
  O      162.125    -335.711     313.473
  H      167.107    -338.251     318.053
  H      162.416    -337.856     312.152
  H      173.422    -335.921     313.911
  H      167.237    -337.292     312.858
  H      168.433    -338.739     315.891
  H      168.410    -336.043     316.803
  H      173.906    -336.230     316.181
  H      166.275    -335.552     315.793
  H      172.645    -336.772     317.242
  H      165.342    -338.304     316.744
  H      163.895    -338.209     314.764
  H      163.562    -336.861     315.834
  P      164.896    -334.552     317.757
  C      162.495    -333.843     318.442
  O      163.601    -334.688     318.687
  O      164.297    -334.417     316.276
  O      165.803    -333.411     318.079
  H      164.470    -333.516     315.936
  H      161.579    -334.362     318.743
  H      162.418    -333.574     317.380
  H      162.597    -332.931     319.039
  H      163.970    -334.747     309.840
  H      162.441    -335.151     310.582
  H      163.585    -336.414     310.194

 3  4  5  6  7  8  9  10  11  12  23  26  30  31 0
 6-311+G(2d,p)
 ****
 33  35  36  37  38 0
 6-311+G(2d,p)
 ****
 1  2  13  14  15  16  17  18  19  20  21  22  24  25 0
 3-21G
 ****
 27  28  29  32  34  39  40  41  42  43  44  45  46  47  48  49 0
 3-21G
 ****


