%nproc=1
%NoSave
%Mem=1900MB
#P OB98/GEN NMR

erre ene a

0 1
  C      165.147     590.233     256.137
  O      166.378     590.887     255.883
  P      167.510     590.966     257.014
  C      168.369     592.657     258.736
  O      167.361     592.362     257.793
  C      168.644     594.165     258.801
  O      169.371     594.568     257.594
  C      167.383     595.041     258.902
  O      167.706     596.132     259.776
  C      167.195     595.529     257.472
  O      166.415     596.717     257.418
  C      168.650     595.676     257.019
  N      168.780     595.706     255.579
  C      168.968     596.964     254.981
  O      168.880     597.982     255.660
  N      169.232     597.017     253.627
  C      169.129     595.931     252.922
  N      169.457     596.021     251.597
  C      168.687     594.642     253.471
  C      168.574     594.581     254.808
  O      168.899     590.672     256.539
  O      167.047     589.884     258.114
  H      167.788     589.264     258.283
  H      165.477     596.490     257.559
  H      168.491     593.806     252.817
  H      168.277     593.672     255.309
  H      169.092     596.598     257.447
  H      166.684     594.765     256.884
  H      166.522     594.484     259.300
  H      169.300     594.351     259.644
  H      169.796     596.913     251.262
  H      169.277     592.139     258.436
  H      169.708     595.201     251.044
  H      168.077     592.283     259.727
  P      166.642     596.496     260.936
  C      164.399     597.779     260.622
  O      165.197     596.696     260.233
  O      167.050     598.017     261.263
  O      166.686     595.673     262.176
  H      166.771     598.225     262.184
  H      163.441     597.710     260.120
  H      164.876     598.724     260.354
  H      164.218     597.749     261.713
  H      164.528     590.287     255.266
  H      164.652     590.711     256.956
  H      165.332     589.208     256.381

 3  4  5  6  7  8  9  10  11  12  13  24  27  28  29  30  32 0
 6-311+G(2d,p)
 ****
 34  35 0
 6-311+G(2d,p)
 ****
 1  2  14  15  16  17  18  19  20  21  22  23  25  26 0
 3-21G
 ****
 31  33  36  37  38  39  40  41  42  43  44  45  46 0
 3-21G
 ****


