%nproc=1
%NoSave
%Mem=1900MB
#P OB98/GEN NMR

erre ene a

0 1
  C      123.950    -287.475     450.673
  O      123.494    -288.488     451.538
  H      124.817    -287.855     450.123
  H      124.264    -286.596     451.243
  H      123.174    -287.200     449.951
  P      122.243    -288.190     452.508
  C      123.736    -288.296     454.599
  O      122.629    -288.873     453.916
  C      124.157    -289.157     455.786
  O      123.106    -289.143     456.796
  C      124.433    -290.626     455.424
  O      125.667    -291.051     456.015
  C      123.270    -291.376     456.066
  O      123.574    -292.741     456.342
  C      123.001    -290.490     457.291
  N      121.704    -290.768     457.886
  C      121.616    -291.917     458.682
  O      122.607    -292.628     458.848
  N      120.406    -292.262     459.220
  C      119.355    -291.548     458.947
  N      118.176    -291.958     459.491
  C      119.393    -290.341     458.093
  C      120.586    -290.009     457.604
  O      120.917    -288.589     451.954
  O      122.348    -286.626     452.839
  H      122.739    -293.212     456.554
  H      121.455    -286.298     453.114
  H      118.488    -289.781     457.896
  H      120.716    -289.142     456.964
  H      123.780    -290.634     458.058
  H      122.410    -291.350     455.391
  H      124.474    -290.805     454.349
  H      125.038    -288.690     456.257
  H      118.194    -292.793     460.069
  H      123.453    -287.285     454.934
  H      117.291    -291.501     459.335
  H      124.572    -288.217     453.894
  P      127.003    -290.702     455.197
  C      127.260    -293.186     454.480
  O      127.871    -292.048     455.078
  O      127.830    -289.785     456.216
  O      126.739    -289.986     453.907
  H      127.858    -288.868     455.894
  H      127.954    -294.000     454.471
  H      126.973    -292.951     453.476
  H      126.393    -293.463     455.043

 6  7  8  9  10  11  12  13  14  15  16  26  30  31  32  33  35 0
 6-311+G(2d,p)
 ****
 37  38 0
 6-311+G(2d,p)
 ****
 1  2  3  4  5  17  18  19  20  21  22  23  24  25 0
 3-21G
 ****
 27  28  29  34  36  39  40  41  42  43  44  45  46 0
 3-21G
 ****


