%nproc=1
%NoSave
%Mem=1900MB
#P OB98/GEN NMR

erre ene a

0 1
  C       16.855      18.926     -20.578
  O       16.918      17.955     -19.550
  P       16.288      18.268     -18.112
  C       18.575      19.129     -17.217
  O       17.206      19.393     -17.434
  C       19.135      20.000     -16.085
  O       18.665      21.354     -16.293
  C       18.673      19.608     -14.687
  O       19.561      20.194     -13.733
  C       17.322      20.282     -14.605
  O       16.883      20.451     -13.260
  C       17.555      21.595     -15.396
  N       16.356      21.986     -16.159
  C       15.224      22.325     -15.423
  O       15.217      22.381     -14.195
  N       14.077      22.514     -16.144
  C       13.957      22.350     -17.492
  O       12.886      22.220     -18.072
  C       15.223      22.232     -18.232
  C       16.348      22.031     -17.541
  O       16.628      16.945     -17.280
  O       14.828      18.561     -18.116
  H       17.174      19.651     -12.764
  H       15.864      16.339     -17.284
  H       13.229      22.616     -15.600
  H       15.186      22.250     -19.312
  H       17.290      21.887     -18.061
  H       17.815      22.424     -14.728
  H       16.579      19.661     -15.120
  H       18.601      18.528     -14.524
  H       20.230      20.010     -16.142
  H       19.127      19.302     -18.146
  H       18.723      18.074     -16.961
  P       19.562      19.599     -12.244
  C       18.161      21.470     -11.183
  O       18.208      20.108     -11.554
  O       20.808      19.819     -11.454
  O       19.275      18.039     -12.479
  H       19.544      17.533     -11.691
  H       17.124      21.812     -11.226
  H       18.767      22.089     -11.850
  H       18.527      21.576     -10.158
  H       17.324      18.542     -21.460
  H       17.362      19.814     -20.262
  H       15.832      19.156     -20.789

 3  4  5  6  7  8  9  10  11  12  13  23  28  29  30  31  32 0
 6-311+G(2d,p)
 ****
 33  34 0
 6-311+G(2d,p)
 ****
 1  2  14  15  16  17  18  19  20  21  22  24  25  26  27 0
 3-21G
 ****
 35  36  37  38  39  40  41  42  43  44  45 0
 3-21G
 ****


