%nproc=1
%NoSave
%Mem=1900MB
#P OB98/GEN NMR

erre ene a

0 1
  C     -128.878     243.451    -278.216
  O     -129.890     242.678    -278.830
  H     -127.983     243.417    -278.845
  H     -128.627     243.055    -277.227
  H     -129.204     244.491    -278.128
  P     -131.215     242.356    -277.979
  C     -132.865     243.177    -279.793
  O     -132.360     242.056    -279.069
  C     -133.710     242.721    -280.986
  O     -132.857     242.412    -282.108
  C     -134.505     241.449    -280.724
  O     -135.562     241.610    -279.801
  C     -134.804     240.957    -282.132
  O     -135.974     241.537    -282.702
  C     -133.549     241.433    -282.911
  N     -132.678     240.323    -283.283
  C     -132.966     239.711    -284.501
  O     -133.897     240.049    -285.233
  N     -132.162     238.661    -284.844
  C     -131.156     238.140    -284.078
  O     -130.495     237.165    -284.422
  C     -130.919     238.811    -282.789
  C     -131.683     239.856    -282.452
  O     -131.605     243.392    -276.965
  O     -130.925     240.916    -277.349
  H     -136.105     241.119    -283.576
  H     -131.539     240.724    -276.601
  H     -132.342     238.210    -285.725
  H     -130.133     238.424    -282.152
  H     -131.527     240.368    -281.508
  H     -133.853     241.944    -283.835
  H     -134.940     239.872    -282.157
  H     -133.823     240.713    -280.278
  H     -134.370     243.547    -281.275
  H     -132.008     243.749    -280.161
  H     -133.456     243.812    -279.124
  P     -136.206     240.396    -278.985
  C     -136.696     241.686    -276.785
  O     -137.234     241.000    -277.909
  O     -135.273     239.308    -278.552
  O     -137.199     239.763    -280.087
  H     -137.220     238.796    -279.948
  H     -137.495     242.029    -276.161
  H     -136.120     242.523    -277.120
  H     -136.069     241.022    -276.228

 6  7  8  9  10  11  12  13  14  15  16  26  31  32  33  34  35 0
 6-311+G(2d,p)
 ****
 36  37 0
 6-311+G(2d,p)
 ****
 1  2  3  4  5  17  18  19  20  21  22  23  24  25 0
 3-21G
 ****
 27  28  29  30  38  39  40  41  42  43  44  45 0
 3-21G
 ****


