%nproc=1
%NoSave
%Mem=1900MB
#P OB98/GEN NMR

erre ene a

0 1
  C     -500.425      15.634    -411.032
  O     -499.117      15.615    -411.565
  H     -501.049      14.946    -411.617
  H     -500.835      16.640    -411.118
  H     -500.431      15.321    -409.982
  P     -497.946      16.224    -410.641
  C     -498.486      18.663    -411.385
  O     -498.377      17.742    -410.308
  C     -499.002      20.005    -410.891
  O     -497.891      20.766    -410.352
  C     -499.659      20.871    -411.990
  O     -500.781      21.586    -411.414
  C     -498.563      21.878    -412.324
  O     -499.081      23.073    -412.906
  C     -497.938      22.075    -410.939
  N     -495.604      26.435    -411.855
  C     -496.950      26.161    -411.632
  N     -497.803      27.198    -411.728
  N     -497.395      24.965    -411.349
  C     -496.437      24.024    -411.271
  C     -495.080      24.164    -411.468
  C     -494.581      25.489    -411.798
  O     -493.417      25.787    -412.034
  N     -494.423      22.949    -411.355
  C     -495.387      22.089    -411.109
  N     -496.620      22.686    -411.042
  O     -496.740      16.399    -411.690
  O     -497.552      15.388    -409.470
  H     -498.439      23.776    -412.771
  H     -496.153      15.613    -411.651
  H     -495.312      27.366    -412.090
  H     -495.242      21.015    -410.988
  H     -498.538      22.723    -410.287
  H     -497.838      21.443    -413.024
  H     -497.535      28.145    -411.903
  H     -499.992      20.307    -412.865
  H     -498.797      27.013    -411.525
  H     -499.711      19.840    -410.056
  H     -499.167      18.263    -412.139
  H     -497.487      18.783    -411.856
  P     -502.216      20.975    -411.609
  C     -503.267      22.584    -413.379
  O     -502.742      21.275    -413.101
  O     -503.145      21.916    -410.704
  O     -502.332      19.535    -411.190
  H     -503.871      21.386    -410.303
  H     -503.575      22.635    -414.402
  H     -502.510      23.318    -413.198
  H     -504.107      22.774    -412.744

 6  7  8  9  10  11  12  13  14  15  26  29  33  34 0
 6-311+G(2d,p)
 ****
 36  38  39  40  41 0
 6-311+G(2d,p)
 ****
 1  2  3  4  5  16  17  18  19  20  21  22  23  24  25 0
 3-21G
 ****
 27  28  30  31  32  35  37  42  43  44  45  46  47 0
 3-21G
 ****
 48  49 0
 3-21G
 ****


