%nproc=1
%NoSave
%Mem=1900MB
#P OB98/GEN NMR

erre ene a

0 1
  C      217.669       0.034     -28.295
  O      219.020      -0.276     -28.023
  H      217.624       0.642     -29.203
  H      217.241       0.610     -27.470
  H      217.083      -0.876     -28.456
  P      219.352      -1.327     -26.859
  C      219.350       0.674     -25.229
  O      218.894      -0.651     -25.479
  C      219.989       0.753     -23.845
  O      218.973       0.937     -22.838
  C      220.750      -0.504     -23.442
  O      221.999      -0.574     -24.105
  C      220.834      -0.311     -21.933
  O      221.890       0.598     -21.592
  C      219.449       0.310     -21.626
  N      218.481      -0.666     -21.126
  C      218.360      -0.763     -19.742
  O      219.046      -0.108     -18.959
  N      217.430      -1.660     -19.285
  C      216.689      -2.509     -20.058
  O      215.906      -3.334     -19.596
  C      216.883      -2.385     -21.510
  C      217.755      -1.485     -21.969
  O      220.741      -1.878     -26.857
  O      218.261      -2.481     -27.072
  H      221.860       1.321     -22.247
  H      218.668      -3.236     -27.537
  H      217.337      -1.755     -18.288
  H      216.316      -3.045     -22.154
  H      217.916      -1.383     -23.037
  H      219.548       1.106     -20.879
  H      221.035      -1.241     -21.401
  H      220.149      -1.398     -23.648
  H      220.647       1.631     -23.824
  H      218.492       1.357     -25.277
  H      220.070       0.953     -26.006
  P      222.803      -1.954     -24.191
  C      224.135      -1.340     -22.091
  O      223.306      -2.316     -22.709
  O      223.867      -2.009     -25.239
  O      221.665      -3.049     -24.465
  H      221.709      -3.343     -25.396
  H      224.413      -1.676     -21.114
  H      223.601      -0.416     -22.012
  H      225.015      -1.194     -22.682

 6  7  8  9  10  11  12  13  14  15  16  26  31  32  33  34  35 0
 6-311+G(2d,p)
 ****
 36  37 0
 6-311+G(2d,p)
 ****
 1  2  3  4  5  17  18  19  20  21  22  23  24  25 0
 3-21G
 ****
 27  28  29  30  38  39  40  41  42  43  44  45 0
 3-21G
 ****


