%nproc=1
%NoSave
%Mem=1900MB
#P OB98/GEN NMR

erre ene a

0 1
  C      627.237    -132.826     589.825
  O      628.352    -133.497     590.363
  H      626.427    -133.544     589.682
  H      627.489    -132.385     588.848
  H      626.894    -132.034     590.504
  P      629.656    -132.596     590.659
  C      630.443    -130.265     589.837
  O      629.653    -131.423     589.575
  C      631.370    -129.991     588.650
  O      630.923    -130.723     587.490
  C      631.420    -128.537     588.223
  O      632.237    -127.750     589.074
  C      631.973    -128.656     586.811
  O      633.396    -128.763     586.808
  C      631.323    -129.975     586.317
  N      629.732    -129.820     581.460
  C      630.940    -130.167     582.005
  N      631.271    -130.193     583.322
  C      630.224    -129.831     584.093
  C      628.960    -129.443     583.667
  C      628.734    -129.454     582.272
  N      627.527    -129.074     581.709
  N      628.162    -129.115     584.737
  C      628.929    -129.293     585.808
  N      630.175    -129.732     585.458
  O      630.855    -133.551     590.187
  O      629.815    -132.165     592.081
  H      633.735    -127.943     587.230
  H      631.264    -133.979     590.979
  H      631.711    -130.459     581.309
  H      628.631    -129.112     586.829
  H      632.037    -130.594     585.758
  H      631.690    -127.788     586.213
  H      630.412    -128.117     588.184
  H      632.383    -130.359     588.913
  H      631.041    -130.425     590.738
  H      629.773    -129.412     589.989
  H      627.459    -129.035     580.708
  H      626.806    -128.701     582.310
  P      631.846    -126.210     589.286
  C      631.227    -124.216     587.719
  O      631.777    -125.529     587.853
  O      633.138    -125.567     589.962
  O      630.619    -126.001     590.111
  H      632.863    -124.878     590.627
  H      631.260    -123.918     586.692
  H      631.797    -123.529     588.308
  H      630.212    -124.218     588.057

 6  7  8  9  10  11  12  13  14  15  25  28  32  33  34  35 0
 6-311+G(2d,p)
 ****
 36  37  40 0
 6-311+G(2d,p)
 ****
 1  2  3  4  5  16  17  18  19  20  21  22  23  24 0
 3-21G
 ****
 26  27  29  30  31  38  39 41  42  43  44  45  46  47  48 0
 3-21G
 ****


