%nproc=1
%NoSave
%Mem=1900MB
#P OB98/GEN NMR

erre ene a

0 1
  C      245.882     -26.865      33.109
  O      246.241     -27.248      34.418
  H      245.508     -25.838      33.135
  H      245.088     -27.519      32.741
  H      246.738     -26.909      32.430
  P      247.222     -28.494      34.613
  C      248.578     -27.600      36.619
  O      247.639     -28.565      36.163
  C      248.604     -27.514      38.145
  O      247.310     -27.096      38.629
  C      248.909     -28.861      38.804
  O      250.290     -29.141      38.957
  C      248.227     -28.709      40.162
  O      249.108     -28.109      41.125
  C      247.046     -27.780      39.864
  N      243.598     -30.721      42.231
  C      244.874     -30.379      42.641
  N      245.286     -30.921      43.807
  N      245.664     -29.594      41.955
  C      245.151     -29.212      40.765
  C      243.910     -29.503      40.243
  C      243.013     -30.311      41.042
  O      241.871     -30.629      40.732
  N      243.753     -28.972      38.985
  C      244.928     -28.438      38.716
  N      245.779     -28.487      39.796
  O      248.583     -28.011      33.914
  O      246.752     -29.786      34.016
  H      248.578     -27.866      41.908
  H      249.048     -28.780      33.537
  H      243.027     -31.305      42.814
  H      245.198     -27.963      37.781
  H      246.938     -27.009      40.637
  H      247.938     -29.684      40.564
  H      244.754     -31.597      44.330
  H      248.417     -29.676      38.266
  H      246.277     -30.850      44.047
  H      249.325     -26.745      38.452
  H      248.271     -26.643      36.196
  H      249.576     -27.827      36.231
  P      250.837     -30.640      38.865
  C      253.283     -30.474      37.926
  O      252.423     -30.610      39.037
  O      250.639     -31.003      37.319
  O      250.164     -31.626      39.763
  H      249.824     -31.523      37.189
  H      254.300     -30.477      38.259
  H      253.075     -29.552      37.425
  H      253.126     -31.290      37.252

 6  7  8  9  10  11  12  13  14  15  26  29  33  34 0
 6-311+G(2d,p)
 ****
 36  38  39  40  41 0
 6-311+G(2d,p)
 ****
 1  2  3  4  5  16  17  18  19  20  21  22  23  24  25 0
 3-21G
 ****
 27  28  30  31  32  35  37  42  43  44  45  46  47 0
 3-21G
 ****
 48  49 0
 3-21G
 ****


