%nproc=1
%NoSave
%Mem=1900MB
#P OB98/GEN NMR

erre ene a

0 1
  C      374.940     166.436      20.353
  O      376.153     166.298      19.639
  H      374.736     167.500      20.493
  H      375.032     165.961      21.334
  H      374.117     165.987      19.795
  P      376.600     164.806      19.244
  C      376.983     165.258      16.720
  O      377.573     164.948      17.974
  C      378.017     165.171      15.592
  O      378.721     166.451      15.507
  C      379.072     164.074      15.785
  O      379.411     163.550      14.501
  C      380.274     164.851      16.312
  O      381.508     164.159      16.113
  C      380.130     166.142      15.512
  N      384.814     167.916      16.052
  C      384.347     166.808      15.372
  N      385.265     166.050      14.736
  N      383.083     166.466      15.319
  C      382.271     167.334      15.970
  C      382.608     168.460      16.689
  C      384.011     168.804      16.759
  O      384.487     169.764      17.361
  N      381.495     169.052      17.228
  C      380.485     168.286      16.842
  N      380.907     167.231      16.076
  O      375.256     164.193      18.626
  O      377.130     163.981      20.366
  H      382.226     164.729      16.460
  H      374.754     163.719      19.313
  H      385.798     168.126      16.072
  H      379.446     168.449      17.088
  H      380.462     166.028      14.472
  H      380.159     165.042      17.389
  H      386.249     166.272      14.693
  H      378.767     163.260      16.451
  H      384.936     165.261      14.195
  H      377.489     165.042      14.643
  H      376.576     166.275      16.756
  H      376.163     164.556      16.524
  P      379.256     161.973      14.262
  C      377.317     162.556      12.632
  O      378.462     161.749      12.890
  O      378.185     161.551      15.372
  O      380.533     161.205      14.402
  H      378.324     160.618      15.632
  H      376.899     162.289      11.684
  H      377.603     163.587      12.619
  H      376.589     162.398      13.400

 6  7  8  9  10  11  12  13  14  15  26  29  33  34 0
 6-311+G(2d,p)
 ****
 36  38  39  40  41 0
 6-311+G(2d,p)
 ****
 1  2  3  4  5  16  17  18  19  20  21  22  23  24  25 0
 3-21G
 ****
 27  28  30  31  32  35  37  42  43  44  45  46  47 0
 3-21G
 ****
 48  49 0
 3-21G
 ****


