%nproc=1
%NoSave
%Mem=1900MB
#P OB98/GEN NMR

erre ene a

0 1
  C      358.159     735.926    -231.653
  O      357.340     736.281    -232.751
  H      358.823     735.103    -231.931
  H      358.770     736.792    -231.372
  H      357.543     735.639    -230.793
  P      356.379     735.135    -233.339
  C      353.942     735.439    -234.170
  O      355.297     735.866    -234.274
  C      353.043     736.367    -234.985
  O      353.036     737.677    -234.352
  C      353.466     736.554    -236.458
  O      352.401     736.154    -237.335
  C      353.687     738.055    -236.604
  O      353.205     738.575    -237.841
  C      352.936     738.648    -235.410
  N      353.966     743.381    -236.975
  C      353.082     742.457    -237.430
  N      352.775     741.258    -236.899
  C      353.482     741.050    -235.784
  C      354.405     741.895    -235.190
  C      354.662     743.103    -235.844
  N      355.615     744.015    -235.423
  N      354.938     741.317    -234.048
  C      354.378     740.139    -233.973
  N      353.511     739.913    -235.004
  O      355.531     734.677    -232.060
  O      357.096     733.985    -233.971
  H      353.836     738.283    -238.527
  H      355.527     733.704    -232.007
  H      352.543     742.725    -238.330
  H      354.593     739.373    -233.220
  H      351.866     738.798    -235.633
  H      354.774     738.252    -236.536
  H      354.378     735.990    -236.704
  H      352.017     735.991    -234.935
  H      353.624     735.469    -233.118
  H      355.809     744.807    -236.027
  H      356.202     743.766    -234.654
  H      353.864     734.410    -234.527
  P      352.562     734.746    -238.083
  C      350.831     733.023    -238.964
  O      351.156     734.389    -238.753
  O      352.674     733.697    -236.869
  O      353.752     734.669    -238.988
  H      353.170     732.916    -237.142
  H      349.864     732.952    -239.417
  H      350.824     732.509    -238.026
  H      351.560     732.578    -239.608

 6  7  8  9  10  11  12  13  14  15  25  28  32  33  34  35 0
 6-311+G(2d,p)
 ****
 36  39  40 0
 6-311+G(2d,p)
 ****
 1  2  3  4  5  16  17  18  19  20  21  22  23  24 0
 3-21G
 ****
 26  27  29  30  31  37  38  41  42  43  44  45  46  47  48 0
 3-21G
 ****


