%nproc=1
%NoSave
%Mem=1900MB
#P OB98/GEN NMR

erre ene a

0 1
  C       38.086    -260.856    -426.407
  O       38.417    -259.746    -427.219
  H       38.058    -261.752    -427.034
  H       37.102    -260.718    -425.951
  H       38.840    -260.998    -425.628
  P       38.516    -258.305    -426.528
  C       39.695    -257.802    -428.769
  O       38.921    -257.283    -427.696
  C       39.721    -256.806    -429.923
  O       39.983    -255.477    -429.434
  C       40.792    -257.102    -430.972
  O       40.346    -258.111    -431.863
  C       40.918    -255.737    -431.627
  O       39.805    -255.517    -432.513
  C       40.822    -254.800    -430.412
  N       43.612    -251.170    -428.238
  C       42.361    -251.098    -428.822
  N       41.795    -249.875    -428.869
  N       41.736    -252.130    -429.330
  C       42.456    -253.272    -429.271
  C       43.707    -253.464    -428.733
  C       44.368    -252.328    -428.124
  O       45.467    -252.351    -427.581
  N       44.145    -254.751    -428.918
  C       43.139    -255.346    -429.532
  N       42.097    -254.487    -429.784
  O       39.391    -258.210    -425.314
  O       36.998    -257.920    -426.209
  H       39.013    -255.842    -432.049
  H       36.747    -258.194    -425.308
  H       44.049    -250.336    -427.882
  H       43.115    -256.391    -429.815
  H       40.340    -253.847    -430.656
  H       41.829    -255.625    -432.215
  H       42.339    -249.028    -428.761
  H       41.752    -257.358    -430.512
  H       40.902    -249.792    -429.339
  H       38.722    -256.791    -430.376
  H       39.233    -258.743    -429.087
  H       40.716    -258.007    -428.437
  P       41.201    -259.451    -432.091
  C       39.066    -260.869    -432.423
  O       40.272    -260.387    -433.002
  O       41.700    -260.098    -430.843
  O       42.356    -259.022    -433.102
  H       43.167    -258.674    -432.654
  H       38.547    -261.476    -433.134
  H       38.449    -260.041    -432.143
  H       39.295    -261.452    -431.556

 6  7  8  9  10  11  12  13  14  15  26  29  33  34 0
 6-311+G(2d,p)
 ****
 36  38  39  40  41 0
 6-311+G(2d,p)
 ****
 1  2  3  4  5  16  17  18  19  20  21  22  23  24  25 0
 3-21G
 ****
 27  28  30  31  32  35  37  42  43  44  45  46  47 0
 3-21G
 ****
 48  49 0
 3-21G
 ****


