%nproc=1
%NoSave
%Mem=1900MB
#P OB98/GEN NMR

erre ene a

0 1
  C      134.934    -283.410     236.317
  O      135.454    -282.473     235.396
  H      134.179    -284.016     235.812
  H      134.465    -282.901     237.164
  H      135.729    -284.071     236.677
  P      136.506    -281.382     235.929
  C      134.731    -279.583     235.359
  O      136.071    -280.022     235.188
  C      134.425    -278.439     234.392
  O      133.051    -278.008     234.518
  C      135.251    -277.173     234.610
  O      136.595    -277.294     234.167
  C      134.448    -276.187     233.774
  O      134.718    -276.406     232.379
  C      132.996    -276.606     234.127
  N      132.417    -275.797     235.201
  C      131.547    -274.771     234.811
  O      131.299    -274.579     233.623
  N      131.005    -273.960     235.778
  C      131.317    -274.143     237.026
  N      130.792    -273.282     237.941
  C      132.216    -275.224     237.484
  C      132.730    -275.999     236.528
  O      137.952    -281.741     235.807
  O      136.046    -281.088     237.436
  H      134.018    -275.956     231.876
  H      136.675    -280.426     237.815
  H      132.452    -275.328     238.533
  H      133.412    -276.806     236.785
  H      132.350    -276.541     233.248
  H      134.686    -275.143     233.994
  H      135.211    -276.857     235.658
  H      134.543    -278.830     233.371
  H      130.213    -272.530     237.586
  H      134.607    -279.261     236.398
  H      131.194    -273.183     238.867
  H      134.034    -280.401     235.154
  P      137.755    -276.763     235.140
  C      137.688    -274.218     234.579
  O      138.372    -275.451     234.448
  O      138.902    -277.862     234.962
  O      137.363    -276.567     236.573
  H      138.840    -278.553     235.651
  H      138.230    -273.453     234.063
  H      137.609    -273.962     235.615
  H      136.708    -274.307     234.158

 6  7  8  9  10  11  12  13  14  15  16  26  30  31  32  33  35 0
 6-311+G(2d,p)
 ****
 37  38 0
 6-311+G(2d,p)
 ****
 1  2  3  4  5  17  18  19  20  21  22  23  24  25 0
 3-21G
 ****
 27  28  29  34  36  39  40  41  42  43  44  45  46 0
 3-21G
 ****


