%nproc=1
%NoSave
%Mem=1900MB
#P OB98/GEN NMR

erre ene a

0 1
  C     1317.099    1202.944    -342.373
  O     1317.827    1202.592    -341.207
  P     1317.491    1203.178    -339.749
  C     1319.973    1203.425    -339.133
  O     1318.718    1202.882    -338.762
  C     1321.155    1202.470    -338.805
  O     1321.000    1201.258    -339.542
  C     1322.531    1203.026    -339.158
  O     1322.945    1203.970    -338.220
  C     1323.340    1201.717    -339.167
  O     1323.734    1201.331    -337.836
  C     1322.322    1200.729    -339.777
  N     1322.570    1200.441    -341.161
  C     1323.873    1199.988    -341.522
  O     1324.734    1199.918    -340.625
  N     1324.135    1199.681    -342.813
  C     1323.209    1199.860    -343.712
  N     1323.534    1199.487    -345.001
  C     1321.880    1200.388    -343.416
  C     1321.631    1200.651    -342.145
  O     1316.167    1202.755    -339.208
  O     1317.535    1204.771    -339.936
  H     1324.334    1200.572    -337.951
  H     1316.908    1205.175    -339.302
  H     1321.160    1200.550    -344.209
  H     1320.684    1201.066    -341.823
  H     1322.363    1199.780    -339.188
  H     1324.264    1201.813    -339.774
  H     1322.524    1203.456    -340.151
  H     1321.085    1202.260    -337.749
  H     1324.456    1199.126    -345.182
  H     1320.122    1204.374    -338.576
  H     1322.902    1199.620    -345.776
  H     1319.973    1203.680    -340.204
  P     1323.980    1205.125    -338.644
  C     1325.703    1204.853    -336.789
  O     1324.687    1205.659    -337.328
  O     1323.428    1206.166    -339.562
  O     1325.163    1204.319    -339.396
  H     1325.548    1204.887    -340.076
  H     1326.369    1205.476    -336.174
  H     1326.310    1204.379    -337.560
  H     1325.241    1204.093    -336.141
  H     1317.507    1202.429    -343.217
  H     1317.168    1204.000    -342.532
  H     1316.072    1202.669    -342.249

 3  4  5  6  7  8  9  10  11  12  13  23  27  28  29  30  32 0
 6-311+G(2d,p)
 ****
 34  35 0
 6-311+G(2d,p)
 ****
 1  2  14  15  16  17  18  19  20  21  22  24  25  26 0
 3-21G
 ****
 31  33  36  37  38  39  40  41  42  43  44  45  46 0
 3-21G
 ****


