%nproc=1
%NoSave
%Mem=1900MB
#P OB98/GEN NMR

erre ene a

0 1
  C      -18.532     275.654     397.885
  O      -18.835     276.997     397.558
  H      -18.992     275.001     397.139
  H      -18.927     275.393     398.869
  H      -17.451     275.500     397.867
  P      -18.514     278.130     398.648
  C      -20.086     279.996     397.812
  O      -18.741     279.530     397.891
  C      -20.210     281.176     396.849
  O      -21.586     281.589     396.725
  C      -19.466     282.425     397.294
  O      -18.063     282.306     397.310
  C      -20.114     283.499     396.437
  O      -19.552     283.562     395.128
  C      -21.578     282.990     396.361
  N      -22.477     283.771     397.198
  C      -22.792     285.042     396.736
  O      -22.335     285.520     395.697
  N      -23.634     285.777     397.527
  C      -24.141     285.384     398.733
  O      -24.875     286.098     399.407
  C      -23.744     284.046     399.192
  C      -22.942     283.310     398.414
  O      -17.178     278.017     399.326
  O      -19.753     278.058     399.656
  H      -19.749     282.713     394.690
  H      -19.557     278.533     400.500
  H      -23.885     286.696     397.202
  H      -24.113     283.706     400.147
  H      -22.637     282.313     398.730
  H      -21.944     283.042     395.325
  H      -20.019     284.493     396.878
  H      -19.755     282.643     398.335
  H      -19.871     280.842     395.860
  H      -20.385     280.318     398.818
  H      -20.738     279.175     397.496
  P      -17.117     283.054     398.352
  C      -15.854     284.827     396.904
  O      -15.813     283.576     397.573
  O      -16.926     282.399     399.678
  O      -17.931     284.429     398.600
  H      -17.780     284.689     399.531
  H      -14.907     285.016     396.442
  H      -16.068     285.602     397.610
  H      -16.618     284.806     396.155

 6  7  8  9  10  11  12  13  14  15  16  26  31  32  33  34  35 0
 6-311+G(2d,p)
 ****
 36  37 0
 6-311+G(2d,p)
 ****
 1  2  3  4  5  17  18  19  20  21  22  23  24  25 0
 3-21G
 ****
 27  28  29  30  38  39  40  41  42  43  44  45 0
 3-21G
 ****


