%nproc=1
%NoSave
%Mem=1900MB
#P OB98/GEN NMR

erre ene a

0 1
  C      -39.033     -66.826      82.860
  O      -39.481     -67.593      81.763
  H      -38.808     -67.499      83.690
  H      -39.819     -66.135      83.175
  H      -38.127     -66.267      82.610
  P      -39.604     -66.893      80.327
  C      -42.134     -66.409      80.424
  O      -40.826     -65.858      80.429
  C      -43.192     -65.304      80.509
  O      -43.159     -64.724      81.845
  C      -42.979     -64.160      79.507
  O      -44.272     -63.641      79.170
  C      -42.210     -63.157      80.343
  O      -42.244     -61.870      79.768
  C      -42.912     -63.313      81.694
  N      -42.125     -62.770      82.799
  C      -42.561     -61.568      83.340
  O      -43.536     -60.949      82.912
  N      -41.814     -61.064      84.368
  C      -40.660     -61.606      84.854
  O      -40.011     -61.095      85.757
  C      -40.222     -62.857      84.214
  C      -40.964     -63.376      83.233
  O      -39.668     -67.819      79.160
  O      -38.332     -65.924      80.251
  H      -42.088     -61.925      78.801
  H      -38.041     -65.825      79.324
  H      -42.122     -60.197      84.778
  H      -39.306     -63.307      84.570
  H      -40.668     -64.296      82.742
  H      -43.884     -62.800      81.688
  H      -41.158     -63.449      80.424
  H      -42.444     -64.470      78.607
  H      -44.182     -65.758      80.386
  H      -42.223     -67.075      81.289
  H      -42.281     -66.994      79.510
  P      -44.880     -63.761      77.690
  C      -44.565     -61.472      76.552
  O      -44.054     -62.793      76.713
  O      -46.361     -63.583      77.619
  O      -44.463     -65.227      77.197
  H      -45.116     -65.554      76.551
  H      -43.935     -60.925      75.883
  H      -44.588     -60.980      77.502
  H      -45.556     -61.519      76.150

 6  7  8  9  10  11  12  13  14  15  16  26  31  32  33  34  35 0
 6-311+G(2d,p)
 ****
 36  37 0
 6-311+G(2d,p)
 ****
 1  2  3  4  5  17  18  19  20  21  22  23  24  25 0
 3-21G
 ****
 27  28  29  30  38  39  40  41  42  43  44  45 0
 3-21G
 ****


