%nproc=1
%NoSave
%Mem=1900MB
#P OB98/GEN NMR

erre ene a

0 1
  C     -532.462    -912.270     145.087
  O     -532.306    -911.443     143.929
  P     -533.398    -911.342     142.761
  C     -534.103    -908.966     143.525
  O     -534.522    -910.282     143.220
  C     -535.293    -908.086     143.950
  O     -535.895    -908.627     145.152
  C     -534.940    -906.658     144.325
  O     -534.638    -905.865     143.184
  C     -536.205    -906.226     145.075
  O     -537.224    -905.789     144.169
  C     -536.638    -907.538     145.757
  N     -536.447    -907.526     147.194
  C     -537.418    -906.835     147.940
  O     -538.321    -906.219     147.384
  N     -537.316    -906.854     149.319
  C     -536.297    -907.423     149.888
  N     -536.262    -907.410     151.245
  C     -535.195    -908.027     149.129
  C     -535.333    -908.045     147.805
  O     -533.957    -912.652     142.329
  O     -532.656    -910.590     141.546
  H     -533.076    -910.845     140.700
  H     -536.865    -905.030     143.675
  H     -534.332    -908.433     149.645
  H     -534.565    -908.491     147.164
  H     -537.689    -907.755     145.532
  H     -536.000    -905.409     145.767
  H     -534.076    -906.661     145.016
  H     -536.034    -908.101     143.142
  H     -537.037    -906.997     151.742
  H     -533.653    -908.528     142.624
  H     -535.526    -907.831     151.787
  H     -533.337    -908.993     144.307
  P     -533.092    -905.579     142.891
  C     -533.105    -906.670     140.531
  O     -532.582    -906.684     141.849
  O     -532.371    -905.968     144.259
  O     -532.790    -904.162     142.505
  H     -531.645    -905.331     144.435
  H     -532.360    -907.099     139.852
  H     -533.340    -905.662     140.192
  H     -534.017    -907.285     140.498
  H     -531.604    -912.167     145.717
  H     -532.562    -913.292     144.785
  H     -533.337    -911.970     145.624

 3  4  5  6  7  8  9  10  11  12  13  24  27  28  29  30  32 0
 6-311+G(2d,p)
 ****
 34  35 0
 6-311+G(2d,p)
 ****
 1  2  14  15  16  17  18  19  20  21  22  23  25  26 0
 3-21G
 ****
 31  33  36  37  38  39  40  41  42  43  44  45  46 0
 3-21G
 ****


