%nproc=1
%NoSave
%Mem=1900MB
#P OB98/GEN NMR

erre ene a

0 1
  C      382.334     829.354    -714.720
  O      383.729     829.621    -714.976
  P      384.071     830.960    -715.767
  C      385.787     831.679    -713.933
  O      384.647     832.041    -714.701
  C      386.467     832.938    -713.393
  O      386.861     833.845    -714.454
  C      385.570     833.778    -712.486
  O      385.424     833.175    -711.209
  C      386.311     835.104    -712.483
  O      387.428     835.055    -711.577
  C      386.828     835.177    -713.934
  N      386.451     839.738    -716.266
  C      387.402     839.196    -715.477
  N      387.437     837.982    -714.886
  C      386.321     837.279    -715.203
  C      385.274     837.689    -716.006
  C      385.357     838.993    -716.543
  N      384.365     839.540    -717.339
  N      384.321     836.691    -716.091
  C      384.772     835.713    -715.344
  N      385.989     836.015    -714.793
  O      382.638     831.562    -716.151
  O      384.919     830.756    -716.974
  H      387.062     834.899    -710.681
  H      382.477     831.454    -717.112
  H      388.260     839.837    -715.289
  H      384.257     834.781    -715.160
  H      387.859     835.595    -713.992
  H      385.670     835.959    -712.194
  H      384.571     833.891    -712.952
  H      387.371     832.639    -712.846
  H      386.497     831.112    -714.544
  H      384.467     840.492    -717.635
  H      383.512     839.007    -717.488
  H      385.477     831.018    -713.127
  P      383.949     832.717    -710.764
  C      384.902     830.452    -710.034
  O      383.985     831.113    -710.870
  O      383.074     833.150    -712.033
  O      383.498     833.265    -709.447
  H      383.502     832.870    -712.877
  H      384.804     829.364    -710.189
  H      384.689     830.681    -708.984
  H      385.932     830.740    -710.291
  H      382.240     828.432    -714.186
  H      381.808     829.283    -715.649
  H      381.920     830.149    -714.135

 3  4  5  6  7  8  9  10  11  12  22  25  29  30  31  32 0
 6-311+G(2d,p)
 ****
 33  36  37 0
 6-311+G(2d,p)
 ****
 1  2  13  14  15  16  17  18  19  20  21  23  24  26 0
 3-21G
 ****
 27  28  34  35  38  39  40  41  42  43  44  45  46  47  48 0
 3-21G
 ****


