%nproc=1
%NoSave
%Mem=1900MB
#P OB98/GEN NMR

erre ene a

0 1
  C      -79.435     153.267      67.808
  O      -79.519     154.455      67.045
  P      -80.610     155.575      67.400
  C      -83.173     155.469      67.677
  O      -82.030     154.926      67.020
  C      -84.405     155.390      66.775
  O      -84.180     156.110      65.546
  C      -84.786     153.974      66.364
  O      -85.440     153.304      67.427
  C      -85.662     154.246      65.149
  O      -87.005     154.575      65.539
  C      -84.965     155.470      64.514
  N      -84.150     155.110      63.361
  C      -84.832     154.993      62.143
  O      -86.052     155.158      62.095
  N      -84.121     154.642      61.021
  C      -82.848     154.409      61.113
  N      -82.201     154.054      59.968
  C      -82.099     154.490      62.383
  C      -82.805     154.841      63.456
  O      -80.346     156.926      66.822
  O      -80.632     155.565      69.003
  H      -87.528     154.607      64.714
  H      -79.827     155.999      69.378
  H      -81.041     154.275      62.411
  H      -82.336     154.922      64.429
  H      -85.708     156.210      64.189
  H      -85.723     153.379      64.484
  H      -83.888     153.425      66.054
  H      -85.243     155.868      67.303
  H      -82.757     153.980      59.125
  H      -82.967     156.516      67.917
  H      -81.222     153.815      59.934
  H      -83.342     154.928      68.614
  P      -84.994     151.822      67.831
  C      -85.185     149.473      66.814
  O      -85.648     150.809      66.775
  O      -85.189     151.461      69.266
  O      -83.437     151.784      67.445
  H      -82.942     151.353      68.168
  H      -85.913     148.833      66.310
  H      -85.062     149.129      67.846
  H      -84.229     149.404      66.289
  H      -78.652     152.649      67.420
  H      -80.365     152.741      67.753
  H      -79.224     153.512      68.828

 3  4  5  6  7  8  9  10  11  12  13  23  27  28  29  30  32 0
 6-311+G(2d,p)
 ****
 34  35 0
 6-311+G(2d,p)
 ****
 1  2  14  15  16  17  18  19  20  21  22  24  25  26 0
 3-21G
 ****
 31  33  36  37  38  39  40  41  42  43  44  45  46 0
 3-21G
 ****


