%nproc=1
%NoSave
%Mem=1900MB
#P OB98/GEN NMR

erre ene a

0 1
  C       95.802     -65.774     -43.059
  O       97.191     -66.022     -43.146
  H       95.446     -66.111     -42.082
  H       95.275     -66.332     -43.838
  H       95.598     -64.704     -43.161
  P       97.950     -65.437     -44.435
  C       97.982     -62.934     -45.227
  O       98.109     -63.864     -44.167
  C       97.838     -61.512     -44.681
  O       96.709     -61.476     -43.771
  C       99.068     -61.018     -43.917
  O       99.222     -59.619     -44.164
  C       98.686     -61.232     -42.462
  O       99.427     -60.390     -41.583
  C       97.174     -60.961     -42.507
  N       96.466     -61.570     -41.383
  C       96.618     -60.956     -40.137
  O       97.332     -59.959     -40.019
  N       95.995     -61.504     -39.045
  C       95.331     -62.610     -39.172
  N       94.759     -63.118     -38.048
  C       95.181     -63.319     -40.458
  C       95.759     -62.744     -41.512
  O       96.807     -65.519     -45.552
  O       99.209     -66.154     -44.788
  H       98.968     -60.364     -40.716
  H       95.940     -65.208     -45.241
  H       94.627     -64.244     -40.512
  H       95.693     -63.190     -42.497
  H       96.976     -59.882     -42.493
  H       98.877     -62.271     -42.172
  H       99.981     -61.547     -44.199
  H       97.595     -60.842     -45.514
  H       94.905     -62.612     -37.183
  H       97.111     -63.175     -45.843
  H       94.267     -63.998     -38.017
  H       98.875     -63.011     -45.854
  P      100.464     -59.103     -45.032
  C      100.848     -59.585     -47.544
  O      100.020     -58.968     -46.566
  O      101.754     -59.815     -44.803
  O      100.593     -57.565     -44.579
  H      101.544     -57.360     -44.488
  H      100.436     -59.417     -48.517
  H      100.900     -60.637     -47.355
  H      101.831     -59.165     -47.495

 6  7  8  9  10  11  12  13  14  15  16  26  30  31  32  33  35 0
 6-311+G(2d,p)
 ****
 37  38 0
 6-311+G(2d,p)
 ****
 1  2  3  4  5  17  18  19  20  21  22  23  24  25 0
 3-21G
 ****
 27  28  29  34  36  39  40  41  42  43  44  45  46 0
 3-21G
 ****


