%nproc=1
%NoSave
%Mem=1900MB
#P OB98/GEN NMR

erre ene a

0 1
  C       33.458    -203.683     364.976
  O       34.746    -204.024     364.486
  H       33.094    -204.507     365.592
  H       32.769    -203.533     364.141
  H       33.512    -202.778     365.583
  P       35.462    -202.926     363.559
  C       34.968    -203.895     361.192
  O       34.656    -202.916     362.170
  C       34.444    -203.457     359.809
  O       35.235    -202.302     359.363
  C       34.579    -204.536     358.717
  O       33.527    -204.326     357.764
  C       35.926    -204.183     358.099
  O       36.099    -204.848     356.864
  C       35.798    -202.666     358.082
  N       39.087    -200.830     354.610
  C       37.869    -201.408     354.484
  N       37.041    -201.855     355.455
  C       37.588    -201.647     356.668
  C       38.814    -201.064     356.958
  C       39.592    -200.651     355.852
  N       40.830    -200.070     355.988
  N       39.026    -201.034     358.329
  C       37.952    -201.584     358.853
  N       37.056    -201.972     357.892
  O       36.860    -203.614     363.184
  O       35.660    -201.585     364.186
  H       36.988    -204.656     356.497
  H       37.556    -203.313     363.803
  H       37.503    -201.523     353.454
  H       37.764    -201.722     359.907
  H       35.108    -202.314     357.306
  H       36.745    -204.501     358.744
  H       34.515    -205.556     359.109
  H       33.413    -203.111     359.913
  H       34.491    -204.843     361.481
  H       36.059    -204.038     361.134
  H       41.326    -199.821     355.147
  H       41.224    -199.949     356.912
  P       32.172    -205.180     357.874
  C       32.993    -206.648     355.875
  O       32.400    -206.602     357.167
  O       31.211    -204.435     356.832
  O       31.540    -205.227     359.236
  H       30.291    -204.548     357.103
  H       33.071    -207.666     355.554
  H       33.969    -206.211     355.915
  H       32.385    -206.102     355.184

 6  7  8  9  10  11  12  13  14  15  25  28  32  33  34  35 0
 6-311+G(2d,p)
 ****
 36  37  40 0
 6-311+G(2d,p)
 ****
 1  2  3  4  5  16  17  18  19  20  21  22  23  24 0
 3-21G
 ****
 26  27  29  30  31  38  39 41  42  43  44  45  46  47  48 0
 3-21G
 ****


