%nproc=1
%NoSave
%Mem=1900MB
#P OB98/GEN NMR

erre ene a

0 1
  C      -19.770      43.383      55.866
  O      -19.031      42.511      55.037
  H      -19.403      44.402      55.718
  H      -19.630      43.112      56.916
  H      -20.832      43.355      55.613
  P      -19.489      40.981      54.923
  C      -19.252      38.858      56.373
  O      -18.938      40.234      56.230
  C      -18.580      38.273      57.621
  O      -17.163      38.070      57.333
  C      -18.662      39.179      58.866
  O      -18.672      38.317      60.012
  C      -17.351      39.937      58.755
  O      -17.039      40.652      59.923
  C      -16.427      38.780      58.353
  N      -15.112      39.171      57.860
  C      -14.001      38.544      58.417
  O      -14.049      37.681      59.291
  N      -12.785      38.950      57.930
  C      -12.579      39.883      56.957
  O      -11.468      40.183      56.539
  C      -13.791      40.515      56.414
  C      -14.983      40.132      56.877
  O      -19.177      40.304      53.631
  O      -21.068      41.040      55.190
  H      -21.546      40.973      54.341
  H      -17.040      40.034      60.686
  H      -11.969      38.504      58.318
  H      -13.663      41.268      55.649
  H      -15.895      40.573      56.489
  H      -16.303      38.091      59.196
  H      -17.417      40.680      57.957
  H      -19.552      39.812      58.878
  H      -19.008      37.284      57.824
  H      -18.895      38.331      55.481
  H      -20.339      38.742      56.443
  P      -20.018      37.828      60.739
  C      -22.063      38.942      61.869
  O      -20.745      39.117      61.362
  O      -19.808      36.724      61.723
  O      -20.994      37.369      59.557
  H      -21.622      36.702      59.892
  H      -22.425      39.874      62.251
  H      -22.049      38.216      62.655
  H      -22.706      38.605      61.083

 6  7  8  9  10  11  12  13  14  15  16  27  31  32  33  34  35 0
 6-311+G(2d,p)
 ****
 36  37 0
 6-311+G(2d,p)
 ****
 1  2  3  4  5  17  18  19  20  21  22  23  24  25 0
 3-21G
 ****
 26  28  29  30  38  39  40  41  42  43  44  45 0
 3-21G
 ****


