%nproc=1
%NoSave
%Mem=1900MB
#P OB98/GEN NMR

erre ene a

0 1
  C     -899.290     -94.302     586.706
  O     -899.800     -94.543     588.006
  H     -899.180     -95.246     586.167
  H     -900.000     -93.671     586.162
  H     -898.330     -93.782     586.751
  P     -898.820     -95.303     589.030
  C     -897.840     -92.951     589.551
  O     -897.570     -94.316     589.256
  C     -896.540     -92.147     589.570
  O     -895.710     -92.628     590.654
  C     -895.730     -92.270     588.270
  O     -895.140     -90.989     587.978
  C     -894.640     -93.262     588.617
  O     -893.490     -93.109     587.804
  C     -894.420     -92.958     590.093
  N     -890.330     -96.017     590.368
  C     -890.590     -94.914     589.630
  N     -891.700     -94.150     589.622
  C     -892.590     -94.597     590.526
  C     -892.480     -95.700     591.349
  C     -891.280     -96.442     591.242
  N     -891.030     -97.590     591.972
  N     -893.620     -95.869     592.117
  C     -894.400     -94.870     591.757
  N     -893.830     -94.081     590.790
  O     -898.220     -96.475     588.116
  O     -899.470     -95.835     590.264
  H     -893.740     -93.246     586.869
  H     -898.860     -97.202     588.049
  H     -889.790     -94.614     588.952
  H     -895.390     -94.685     592.162
  H     -893.740     -92.099     590.250
  H     -895.020     -94.287     588.487
  H     -896.340     -92.601     587.421
  H     -896.780     -91.105     589.792
  H     -898.320     -92.885     590.529
  H     -890.180     -98.082     591.777
  H     -891.740     -97.949     592.570
  H     -898.520     -92.542     588.802
  P     -895.870     -90.131     586.826
  C     -896.640     -88.078     588.227
  O     -897.030     -89.244     587.504
  O     -896.670     -91.218     585.970
  O     -894.910     -89.366     585.967
  H     -896.490     -91.106     585.032
  H     -897.510     -87.593     588.618
  H     -896.123     -87.408     587.572
  H     -895.995     -88.358     589.033

 6  7  8  9  10  11  12  13  14  15  25  28  32  33  34  35 0
 6-311+G(2d,p)
 ****
 36  39  40 0
 6-311+G(2d,p)
 ****
 1  2  3  4  5  16  17  18  19  20  21  22  23  24 0
 3-21G
 ****
 26  27  29  30  31  37  38  41  42  43  44  45  46  47 0
 3-21G
 ****
 48 0
 3-21G
 ****


