%nproc=1
%NoSave
%Mem=1900MB
#P OB98/GEN NMR

erre ene a

0 1
  C       76.829      21.591       9.763
  O       76.445      21.600       8.407
  H       76.285      22.387      10.281
  H       77.899      21.782       9.864
  H       76.573      20.635      10.226
  P       77.230      20.656       7.369
  C       79.315      21.048       5.927
  O       78.647      21.391       7.135
  C       80.827      21.248       6.047
  O       81.136      22.665       5.997
  C       81.425      20.690       7.344
  O       82.604      19.941       7.041
  C       81.780      21.935       8.142
  O       82.810      21.689       9.095
  C       82.121      22.918       7.017
  N       82.105      24.310       7.451
  C       83.240      24.766       8.128
  O       84.173      23.997       8.363
  N       83.278      26.068       8.557
  C       82.250      26.835       8.375
  N       82.345      28.112       8.833
  C       81.013      26.383       7.707
  C       81.011      25.124       7.269
  O       76.477      20.336       6.123
  O       77.632      19.366       8.225
  H       83.116      22.552       9.451
  H       77.829      18.615       7.612
  H       80.178      27.058       7.589
  H       80.149      24.709       6.759
  H       83.112      22.699       6.596
  H       80.893      22.287       8.685
  H       80.740      20.048       7.893
  H       81.303      20.801       5.166
  H       83.212      28.383       9.283
  H       78.913      21.664       5.117
  H       81.607      28.795       8.752
  H       79.112      19.992       5.712
  P       82.448      18.343       7.056
  C       83.280      16.428       8.591
  O       82.971      17.809       8.478
  O       83.575      17.858       6.027
  O       81.091      17.869       6.657
  H       83.173      17.648       5.164
  H       83.613      16.217       9.586
  H       84.053      16.177       7.895
  H       82.406      15.848       8.377

 6  7  8  9  10  11  12  13  14  15  16  26  30  31  32  33  35 0
 6-311+G(2d,p)
 ****
 37  38 0
 6-311+G(2d,p)
 ****
 1  2  3  4  5  17  18  19  20  21  22  23  24  25 0
 3-21G
 ****
 27  28  29  34  36  39  40  41  42  43  44  45  46 0
 3-21G
 ****


