%nproc=1
%NoSave
%Mem=1900MB
#P OB98/GEN NMR

erre ene a

0 1
  C       26.239    -157.235     -84.116
  O       26.202    -157.750     -85.433
  P       25.454    -159.127     -85.753
  C       27.701    -160.219     -86.318
  O       26.380    -159.955     -86.772
  C       28.427    -161.184     -87.255
  O       29.818    -161.290     -86.841
  C       27.850    -162.606     -87.283
  O       28.025    -163.096     -88.616
  C       28.769    -163.361     -86.338
  O       28.744    -164.768     -86.546
  C       30.101    -162.695     -86.666
  N       34.605    -164.783     -85.446
  C       33.865    -164.838     -86.574
  N       32.662    -164.276     -86.812
  C       32.233    -163.596     -85.735
  C       32.864    -163.475     -84.508
  C       34.121    -164.094     -84.384
  N       34.905    -164.019     -83.254
  N       32.080    -162.744     -83.634
  C       31.002    -162.433     -84.324
  N       31.081    -162.871     -85.616
  O       24.029    -158.995     -86.174
  O       25.580    -159.960     -84.393
  H       27.818    -165.070     -86.492
  H       24.717    -159.978     -83.934
  H       34.296    -165.404     -87.395
  H       30.144    -161.898     -83.941
  H       30.533    -163.072     -87.599
  H       28.470    -163.167     -85.301
  H       26.799    -162.666     -86.984
  H       28.424    -160.750     -88.262
  H       27.633    -160.666     -85.322
  H       35.842    -164.385     -83.321
  H       34.696    -163.305     -82.559
  H       28.261    -159.279     -86.238
  P       26.791    -163.765     -89.392
  C       28.238    -165.826     -89.851
  O       27.418    -164.821     -90.419
  O       25.808    -162.806     -89.976
  O       26.115    -164.701     -88.278
  H       25.208    -164.934     -88.555
  H       29.237    -165.420     -89.670
  H       28.314    -166.661     -90.553
  H       27.820    -166.190     -88.909
  H       26.782    -156.313     -84.109
  H       26.723    -157.939     -83.471
  H       25.240    -157.064     -83.772

 3  4  5  6  7  8  9  10  11  12  22  25  29  30  31  32 0
 6-311+G(2d,p)
 ****
 33  36  37 0
 6-311+G(2d,p)
 ****
 1  2  13  14  15  16  17  18  19  20  21  23  24  26 0
 3-21G
 ****
 27  28  34  35  38  39  40  41  42  43  44  45  46  47  48 0
 3-21G
 ****


