%nproc=1
%NoSave
%Mem=1900MB
#P OB98/GEN NMR

erre ene a

0 1
  C     -262.843    -544.267     -27.932
  O     -264.195    -544.667     -27.818
  H     -262.227    -544.949     -27.342
  H     -262.717    -543.255     -27.544
  H     -262.520    -544.309     -28.975
  P     -265.282    -543.812     -28.630
  C     -266.232    -542.589     -26.535
  O     -265.505    -542.480     -27.752
  C     -266.422    -541.208     -25.903
  O     -267.271    -540.403     -26.757
  C     -267.073    -541.258     -24.519
  O     -266.403    -540.350     -23.645
  C     -268.504    -540.819     -24.760
  O     -269.099    -540.241     -23.600
  C     -268.345    -539.876     -25.961
  N     -269.580    -539.774     -26.735
  C     -270.458    -538.736     -26.390
  O     -270.178    -537.972     -25.460
  N     -271.647    -538.623     -27.063
  C     -271.963    -539.502     -27.961
  N     -273.166    -539.348     -28.575
  C     -271.095    -540.639     -28.324
  C     -269.926    -540.705     -27.683
  O     -266.630    -544.641     -28.404
  O     -264.954    -543.564     -30.066
  H     -270.019    -539.979     -23.827
  H     -267.343    -544.347     -29.022
  H     -271.410    -541.355     -29.067
  H     -269.225    -541.512     -27.885
  H     -268.057    -538.870     -25.623
  H     -269.109    -541.689     -25.048
  H     -267.046    -542.258     -24.074
  H     -265.449    -540.707     -25.864
  H     -273.743    -538.564     -28.294
  H     -265.674    -543.235     -25.848
  H     -273.532    -539.989     -29.268
  H     -267.207    -543.037     -26.740
  P     -265.423    -541.011     -22.557
  C     -266.786    -540.545     -20.403
  O     -266.328    -541.517     -21.329
  O     -264.625    -539.758     -21.959
  O     -264.508    -542.046     -23.129
  H     -263.745    -539.685     -22.369
  H     -267.372    -541.022     -19.645
  H     -267.385    -539.820     -20.914
  H     -265.946    -540.059     -19.951

 6  7  8  9  10  11  12  13  14  15  16  26  30  31  32  33  35 0
 6-311+G(2d,p)
 ****
 37  38 0
 6-311+G(2d,p)
 ****
 1  2  3  4  5  17  18  19  20  21  22  23  24  25 0
 3-21G
 ****
 27  28  29  34  36  39  40  41  42  43  44  45  46 0
 3-21G
 ****


