%nproc=1
%NoSave
%Mem=1900MB
#P OB98/GEN NMR

erre ene a

0 1
  C      535.330    -161.765     175.608
  O      534.661    -162.296     174.482
  H      534.952    -160.765     175.835
  H      535.147    -162.417     176.466
  H      536.407    -161.722     175.420
  P      534.771    -161.460     173.116
  C      532.497    -162.272     172.164
  O      533.914    -162.256     172.010
  C      531.880    -163.280     171.193
  O      532.499    -163.099     169.892
  C      532.051    -164.752     171.603
  O      530.770    -165.384     171.718
  C      532.796    -165.387     170.436
  O      532.317    -166.690     170.106
  C      532.573    -164.398     169.295
  N      534.763    -167.335     165.750
  C      533.515    -167.344     166.273
  N      532.961    -166.473     167.135
  C      533.829    -165.486     167.437
  C      535.117    -165.327     166.962
  C      535.595    -166.327     166.091
  N      536.882    -166.349     165.604
  N      535.708    -164.200     167.504
  C      534.795    -163.707     168.322
  N      533.653    -164.463     168.332
  O      536.286    -161.709     172.656
  O      534.459    -160.008     173.232
  H      532.525    -167.266     170.865
  H      536.697    -160.855     172.415
  H      532.880    -168.174     165.963
  H      534.927    -162.839     168.966
  H      531.627    -164.587     168.764
  H      533.860    -165.462     170.696
  H      532.608    -164.868     172.536
  H      530.815    -163.037     171.075
  H      532.095    -161.275     171.945
  H      537.173    -167.154     165.082
  H      537.537    -165.654     165.943
  H      532.253    -162.527     173.198
  P      530.147    -165.482     173.201
  C      528.607    -167.568     173.417
  O      528.713    -166.193     173.073
  O      529.779    -163.958     173.532
  O      531.078    -166.064     174.213
  H      529.794    -163.815     174.497
  H      527.597    -167.893     173.280
  H      528.889    -167.702     174.440
  H      529.255    -168.144     172.790

 6  7  8  9  10  11  12  13  14  15  25  28  32  33  34  35 0
 6-311+G(2d,p)
 ****
 36  39  40 0
 6-311+G(2d,p)
 ****
 1  2  3  4  5  16  17  18  19  20  21  22  23  24 0
 3-21G
 ****
 26  27  29  30  31  37  38  41  42  43  44  45  46  47  48 0
 3-21G
 ****


