%nproc=1
%NoSave
%Mem=1900MB
#P OB98/GEN NMR

erre ene a

0 1
  C      561.412      -6.394     854.153
  O      562.202      -5.703     853.208
  P      561.536      -4.653     852.197
  C      561.337      -6.500     850.403
  O      561.842      -5.194     850.718
  C      561.821      -6.917     849.025
  O      561.260      -6.065     847.986
  C      563.331      -6.812     848.825
  O      564.143      -7.682     849.590
  C      563.434      -6.933     847.314
  O      563.369      -8.273     846.857
  C      562.176      -6.139     846.859
  N      562.504      -4.801     846.340
  C      562.224      -4.590     845.003
  O      561.716      -5.438     844.267
  N      562.557      -3.344     844.506
  C      563.193      -2.361     845.191
  O      563.509      -1.292     844.689
  C      563.478      -2.664     846.614
  C      563.136      -3.844     847.122
  O      561.907      -3.217     852.427
  O      559.964      -4.947     852.343
  H      564.070      -8.776     847.318
  H      559.689      -5.855     852.117
  H      562.370      -3.180     843.531
  H      563.965      -1.884     847.186
  H      563.342      -4.093     848.148
  H      561.642      -6.685     846.057
  H      564.387      -6.510     846.951
  H      563.639      -5.805     849.100
  H      561.446      -7.936     848.822
  H      560.256      -6.462     850.410
  H      561.658      -7.212     851.173
  P      565.581      -7.274     850.142
  C      566.746      -7.746     847.853
  O      566.695      -8.016     849.254
  O      565.766      -7.310     851.630
  O      565.703      -5.756     849.618
  H      566.246      -5.237     850.273
  H      567.518      -8.369     847.401
  H      566.983      -6.695     847.694
  H      565.781      -7.982     847.406
  H      562.035      -7.044     854.731
  H      560.670      -6.972     853.643
  H      560.933      -5.690     854.801

 3  4  5  6  7  8  9  10  11  12  13  23  28  29  30  31  32 0
 6-311+G(2d,p)
 ****
 33  34 0
 6-311+G(2d,p)
 ****
 1  2  14  15  16  17  18  19  20  21  22  24  25  26  27 0
 3-21G
 ****
 35  36  37  38  39  40  41  42  43  44  45 0
 3-21G
 ****


