%nproc=1
%NoSave
%Mem=1900MB
#P OB98/GEN NMR

erre ene a

0 1
  C     -630.890    -890.364     173.740
  O     -631.763    -889.972     174.795
  P     -631.497    -890.596     176.250
  C     -633.873    -891.650     176.383
  O     -632.458    -891.877     176.358
  C     -634.578    -892.780     177.136
  O     -634.281    -894.048     176.505
  C     -634.159    -892.940     178.573
  O     -634.855    -892.031     179.436
  C     -634.610    -894.372     178.851
  O     -636.030    -894.389     179.087
  C     -634.288    -895.072     177.547
  N     -631.949    -899.580     178.165
  C     -633.259    -899.220     178.275
  N     -633.790    -897.980     178.102
  C     -632.833    -897.080     177.824
  C     -631.478    -897.290     177.716
  C     -631.029    -898.620     177.884
  N     -629.708    -899.000     177.736
  N     -630.809    -896.148     177.410
  C     -631.771    -895.217     177.335
  N     -633.009    -895.748     177.562
  O     -632.189    -889.528     177.237
  O     -630.056    -890.822     176.593
  H     -636.465    -894.218     178.216
  H     -631.792    -889.583     178.108
  H     -633.949    -900.000     178.526
  H     -631.589    -894.177     177.113
  H     -635.057    -895.815     177.274
  H     -634.138    -894.811     179.746
  H     -633.071    -892.878     178.704
  H     -635.674    -892.623     177.051
  H     -634.247    -891.609     175.354
  H     -629.514    -899.990     177.696
  H     -629.063    -898.340     177.331
  H     -634.071    -890.696     176.875
  P     -634.374    -891.984     180.959
  C     -636.622    -892.807     181.952
  O     -635.245    -893.081     181.729
  O     -634.967    -890.590     181.481
  O     -632.885    -892.070     181.160
  H     -634.436    -890.240     182.233
  H     -637.136    -893.762     182.176
  H     -637.096    -892.364     181.065
  H     -636.742    -892.139     182.807
  H     -631.183    -889.875     172.834
  H     -630.945    -891.424     173.607
  H     -629.886    -890.087     173.986

 3  4  5  6  7  8  9  10  11  12  22  25  29  30  31  32 0
 6-311+G(2d,p)
 ****
 33  36  37 0
 6-311+G(2d,p)
 ****
 1  2  13  14  15  16  17  18  19  20  21  23  24  26 0
 3-21G
 ****
 27  28  34  35  38  39  40  41  42  43  44  45  46  47  48 0
 3-21G
 ****


