%nproc=1
%NoSave
%Mem=1900MB
#P OB98/GEN NMR

erre ene a

0 1
  C       -3.184      14.390     -33.651
  O       -3.238      13.421     -34.680
  H       -3.791      14.043     -32.812
  H       -3.584      15.343     -34.007
  H       -2.153      14.517     -33.311
  P       -2.434      13.757     -36.027
  C       -2.218      15.890     -37.476
  O       -2.892      15.247     -36.403
  C       -2.854      17.245     -37.772
  O       -4.235      17.079     -38.135
  C       -2.835      18.218     -36.599
  O       -1.586      18.886     -36.529
  C       -3.953      19.171     -36.995
  O       -3.457      20.127     -37.952
  C       -4.973      18.238     -37.669
  N      -10.061      18.201     -36.991
  C       -9.276      18.888     -37.847
  N       -7.929      18.892     -37.936
  C       -7.389      18.068     -37.022
  C       -8.064      17.305     -36.082
  C       -9.466      17.387     -36.089
  N      -10.263      16.685     -35.212
  N       -7.178      16.586     -35.306
  C       -5.994      16.865     -35.811
  N       -6.064      17.785     -36.826
  O       -2.540      12.742     -37.114
  O       -0.957      13.984     -35.452
  H       -3.024      19.617     -38.662
  H       -0.989      14.479     -34.614
  H       -9.800      19.524     -38.555
  H       -5.060      16.416     -35.492
  H       -5.433      18.707     -38.547
  H       -4.339      19.739     -36.148
  H       -3.099      17.725     -35.657
  H       -2.340      17.676     -38.642
  H       -2.251      15.262     -38.374
  H      -11.234      16.948     -35.159
  H       -9.811      16.183     -34.461
  H       -1.171      16.017     -37.183
  P       -0.849      19.118     -35.123
  C       -1.735      19.780     -32.802
  O       -1.931      19.869     -34.208
  O        0.484      19.774     -35.224
  O       -0.776      17.661     -34.470
  H       -0.121      17.653     -33.747
  H       -2.513      20.315     -32.299
  H       -0.787      20.205     -32.546
  H       -1.758      18.753     -32.503

 6  7  8  9  10  11  12  13  14  15  25  28  32  33  34  35 0
 6-311+G(2d,p)
 ****
 36  39  40 0
 6-311+G(2d,p)
 ****
 1  2  3  4  5  16  17  18  19  20  21  22  23  24 0
 3-21G
 ****
 26  27  29  30  31  37  38  41  42  43  44  45  46  47 0
 3-21G
 ****
 48 0
 3-21G
 ****


