%nproc=1
%NoSave
%Mem=1900MB
#P OB98/GEN NMR

erre ene a

0 1
  C       41.373      47.511     -45.457
  O       40.257      47.015     -46.161
  P       40.402      46.529     -47.682
  C       40.710      44.038     -47.113
  O       41.317      45.209     -47.647
  C       40.216      43.141     -48.244
  O       41.313      42.721     -49.095
  C       39.587      41.837     -47.775
  O       38.377      41.923     -47.054
  C       39.569      41.034     -49.065
  O       38.460      41.392     -49.887
  C       40.899      41.483     -49.724
  N       41.930      40.453     -49.627
  C       41.939      39.503     -50.642
  O       41.142      39.500     -51.579
  N       42.885      38.521     -50.533
  C       43.772      38.373     -49.507
  O       44.565      37.441     -49.450
  C       43.704      39.397     -48.455
  C       42.801      40.376     -48.559
  O       40.858      47.575     -48.642
  O       38.955      45.927     -48.015
  H       38.471      40.806     -50.668
  H       38.682      45.186     -47.446
  H       42.901      37.814     -51.251
  H       44.403      39.316     -47.633
  H       42.731      41.142     -47.794
  H       40.740      41.708     -50.786
  H       39.496      39.959     -48.874
  H       40.296      41.341     -47.099
  H       39.529      43.720     -48.866
  H       39.857      44.331     -46.492
  H       41.427      43.514     -46.472
  P       37.870      40.787     -46.045
  C       38.109      42.284     -43.943
  O       38.483      41.091     -44.595
  O       37.930      39.379     -46.535
  O       36.331      41.202     -45.843
  H       35.803      40.397     -45.686
  H       38.651      42.349     -42.995
  H       37.037      42.284     -43.731
  H       38.371      43.153     -44.553
  H       41.077      47.782     -44.465
  H       41.759      48.372     -45.962
  H       42.130      46.756     -45.410

 3  4  5  6  7  8  9  10  11  12  13  23  28  29  30  31  32 0
 6-311+G(2d,p)
 ****
 33  34 0
 6-311+G(2d,p)
 ****
 1  2  14  15  16  17  18  19  20  21  22  24  25  26  27 0
 3-21G
 ****
 35  36  37  38  39  40  41  42  43  44  45 0
 3-21G
 ****


