%nproc=1
%NoSave
%Mem=1900MB
#P OB98/GEN NMR

erre ene a

0 1
  C       12.039     -13.435      15.948
  O       12.825     -13.156      14.808
  H       11.090     -13.868      15.619
  H       11.830     -12.515      16.497
  H       12.541     -14.152      16.601
  P       14.337     -12.668      15.015
  C       15.516     -10.475      15.680
  O       14.278     -11.107      15.375
  C       15.389      -8.967      15.485
  O       14.981      -8.675      14.130
  C       14.336      -8.318      16.375
  O       14.785      -8.195      17.709
  C       14.115      -7.006      15.644
  O       15.122      -6.047      15.984
  C       14.245      -7.433      14.164
  N       12.941      -7.573      13.517
  C       12.947      -7.606      12.127
  O       13.970      -7.535      11.449
  N       11.717      -7.662      11.528
  C       10.516      -7.548      12.168
  O        9.457      -7.354      11.580
  C       10.570      -7.579      13.636
  C       11.762      -7.577      14.235
  O       15.289     -13.033      13.925
  O       14.760     -13.338      16.408
  H       15.315     -14.122      16.230
  H       14.878      -5.706      16.870
  H       11.711      -7.644      10.518
  H        9.635      -7.563      14.180
  H       11.830      -7.565      15.319
  H       14.837      -6.698      13.605
  H       13.144      -6.569      15.887
  H       13.410      -8.904      16.340
  H       16.373      -8.512      15.651
  H       16.286     -10.866      15.005
  H       15.793     -10.713      16.712
  P       13.820      -8.583      18.926
  C       11.485      -7.840      19.697
  O       12.695      -7.449      19.058
  O       14.512      -8.930      20.202
  O       12.991      -9.839      18.376
  H       13.030     -10.556      19.038
  H       10.813      -7.008      19.728
  H       11.697      -8.165      20.694
  H       11.035      -8.641      19.149

 6  7  8  9  10  11  12  13  14  15  16  27  31  32  33  34  35 0
 6-311+G(2d,p)
 ****
 36  37 0
 6-311+G(2d,p)
 ****
 1  2  3  4  5  17  18  19  20  21  22  23  24  25 0
 3-21G
 ****
 26  28  29  30  38  39  40  41  42  43  44  45 0
 3-21G
 ****


