%nproc=1
%NoSave
%Mem=1900MB
#P OB98/GEN NMR

erre ene a

0 1
  C      216.337     392.990    -106.818
  O      216.390     392.129    -107.941
  H      215.704     393.847    -107.065
  H      217.345     393.349    -106.578
  H      215.910     392.468    -105.956
  P      217.128     390.720    -107.738
  C      219.196     391.249    -109.269
  O      218.702     390.968    -107.966
  C      220.501     392.035    -109.176
  O      220.354     393.202    -108.342
  C      221.636     391.265    -108.519
  O      222.138     390.231    -109.330
  C      222.629     392.393    -108.266
  O      223.343     392.726    -109.465
  C      221.680     393.547    -107.856
  N      221.680     393.784    -106.416
  C      222.703     394.620    -105.937
  O      223.520     395.105    -106.718
  N      222.785     394.849    -104.588
  C      221.911     394.318    -103.789
  N      222.050     394.576    -102.460
  C      220.807     393.452    -104.251
  C      220.754     393.230    -105.563
  O      216.703     389.911    -109.050
  O      216.825     390.019    -106.452
  H      224.038     393.359    -109.202
  H      216.894     390.384    -109.879
  H      220.095     393.040    -103.546
  H      219.975     392.609    -105.984
  H      221.970     394.480    -108.354
  H      223.376     392.122    -107.513
  H      221.314     390.876    -107.540
  H      220.773     392.369    -110.184
  H      222.836     395.152    -102.176
  H      218.455     391.803    -109.857
  H      221.454     394.189    -101.742
  H      219.367     390.295    -109.774
  P      222.743     388.895    -108.679
  C      225.221     389.404    -109.149
  O      224.217     389.280    -108.156
  O      222.690     387.684    -109.538
  O      221.926     388.757    -107.305
  H      222.017     389.509    -106.693
  H      226.151     389.661    -108.686
  H      224.944     390.171    -109.842
  H      225.326     388.474    -109.668

 6  7  8  9  10  11  12  13  14  15  16  26  30  31  32  33  35 0
 6-311+G(2d,p)
 ****
 37  38 0
 6-311+G(2d,p)
 ****
 1  2  3  4  5  17  18  19  20  21  22  23  24  25 0
 3-21G
 ****
 27  28  29  34  36  39  40  41  42  43  44  45  46 0
 3-21G
 ****


