%nproc=1
%NoSave
%Mem=1900MB
#P OB98/GEN NMR

erre ene a

0 1
  C     -441.531     115.039    -556.279
  O     -442.302     115.699    -557.281
  P     -443.826     115.263    -557.507
  C     -443.798     116.165    -559.921
  O     -444.462     116.173    -558.663
  C     -444.481     117.120    -560.905
  O     -445.873     117.327    -560.538
  C     -443.817     118.510    -560.936
  O     -443.898     119.077    -562.252
  C     -444.706     119.329    -560.022
  O     -444.568     120.728    -560.269
  C     -446.076     118.744    -560.356
  N     -449.258     122.205    -558.324
  C     -448.455     122.250    -559.410
  N     -447.656     121.283    -559.904
  C     -447.745     120.168    -559.159
  C     -448.525     119.967    -558.032
  C     -449.306     121.055    -557.606
  N     -450.106     121.009    -556.485
  N     -448.352     118.686    -557.529
  C     -447.442     118.145    -558.321
  N     -447.075     118.987    -559.333
  O     -444.655     115.145    -556.270
  O     -443.680     113.838    -558.234
  H     -443.629     120.954    -560.176
  H     -444.340     113.217    -557.863
  H     -448.454     123.193    -559.949
  H     -447.018     117.164    -558.190
  H     -446.467     119.142    -561.302
  H     -444.438     119.138    -558.977
  H     -442.769     118.517    -560.612
  H     -444.475     116.673    -561.904
  H     -443.792     115.150    -560.330
  H     -450.535     121.878    -556.188
  H     -450.033     120.217    -555.862
  H     -442.746     116.435    -559.763
  P     -442.679     118.733    -563.248
  C     -441.297     120.909    -562.796
  O     -442.071     120.147    -563.696
  O     -443.056     117.799    -564.352
  O     -441.588     118.133    -562.239
  H     -441.413     118.679    -561.461
  H     -440.879     121.763    -563.328
  H     -440.478     120.316    -562.388
  H     -441.929     121.281    -561.982
  H     -440.543     115.449    -556.261
  H     -441.479     113.993    -556.500
  H     -441.993     115.179    -555.324

 3  4  5  6  7  8  9  10  11  12  22  25  29  30  31  32 0
 6-311+G(2d,p)
 ****
 33  36  37 0
 6-311+G(2d,p)
 ****
 1  2  13  14  15  16  17  18  19  20  21  23  24  26 0
 3-21G
 ****
 27  28  34  35  38  39  40  41  42  43  44  45  46  47  48 0
 3-21G
 ****


