%nproc=1
%NoSave
%Mem=1900MB
#P OB98/GEN NMR

erre ene a

0 1
  C      729.747     275.838      23.033
  O      728.700     275.031      22.522
  H      730.622     275.726      22.389
  H      730.007     275.507      24.044
  H      729.446     276.889      23.049
  P      727.256     275.231      23.186
  C      726.827     272.642      23.141
  O      726.371     273.944      22.797
  C      725.951     271.585      22.470
  O      724.573     271.732      22.877
  C      725.890     271.693      20.960
  O      727.086     271.266      20.331
  C      724.698     270.791      20.656
  O      725.084     269.414      20.574
  C      723.784     271.043      21.882
  N      722.583     271.776      21.513
  C      721.484     270.984      21.155
  O      721.573     269.758      21.185
  N      720.338     271.604      20.736
  C      720.299     272.903      20.654
  N      719.140     273.456      20.205
  C      721.432     273.774      21.025
  C      722.538     273.150      21.439
  O      726.620     276.395      22.294
  O      727.278     275.520      24.648
  H      724.251     268.895      20.573
  H      726.696     276.241      21.339
  H      721.344     274.847      20.946
  H      723.421     273.707      21.727
  H      723.475     270.087      22.327
  H      724.237     271.047      19.699
  H      725.628     272.719      20.658
  H      726.303     270.596      22.789
  H      718.402     272.820      19.914
  H      726.821     272.504      24.229
  H      719.021     274.443      20.027
  H      727.863     272.549      22.800
  P      727.687     272.050      19.070
  C      727.916     269.913      17.650
  O      728.600     270.998      18.268
  O      728.365     273.343      19.376
  O      726.419     272.201      18.096
  H      726.015     271.357      17.823
  H      728.623     269.284      17.150
  H      727.212     270.293      16.940
  H      727.399     269.346      18.396

 6  7  8  9  10  11  12  13  14  15  16  26  30  31  32  33  35 0
 6-311+G(2d,p)
 ****
 37  38 0
 6-311+G(2d,p)
 ****
 1  2  3  4  5  17  18  19  20  21  22  23  24  25 0
 3-21G
 ****
 27  28  29  34  36  39  40  41  42  43  44  45  46 0
 3-21G
 ****


