%nproc=1
%NoSave
%Mem=1900MB
#P OB98/GEN NMR

erre ene a

0 1
  C      516.134     196.226      -2.831
  O      515.401     195.995      -1.643
  H      516.845     195.403      -2.960
  H      516.689     197.162      -2.746
  H      515.477     196.259      -3.701
  P      514.078     196.856      -1.374
  C      514.785     197.700       0.962
  O      513.866     196.911       0.215
  C      515.195     196.981       2.254
  O      514.060     196.954       3.163
  C      515.575     195.515       1.989
  O      516.514     195.022       2.947
  C      514.261     194.781       2.171
  O      514.423     193.398       2.475
  C      513.608     195.596       3.289
  N      509.400     193.361       5.108
  C      510.722     192.975       5.231
  N      510.949     191.842       5.944
  N      511.718     193.620       4.702
  C      511.343     194.694       3.957
  C      510.071     195.167       3.742
  C      508.965     194.458       4.369
  O      507.784     194.742       4.267
  N      510.085     196.272       2.925
  C      511.351     196.462       2.649
  N      512.160     195.548       3.276
  O      512.899     195.881      -1.843
  O      514.018     198.181      -2.073
  H      514.884     193.338       3.328
  H      512.097     196.404      -2.056
  H      508.672     192.847       5.565
  H      511.732     197.256       2.021
  H      513.944     195.228       4.270
  H      513.703     194.836       1.225
  H      510.193     191.216       6.198
  H      515.979     195.361       0.988
  H      511.849     191.381       5.791
  H      515.991     197.533       2.757
  H      514.285     198.646       1.189
  H      515.666     197.935       0.359
  P      518.074     195.305       2.696
  C      518.328     193.231       1.053
  O      518.787     193.968       2.173
  O      518.661     195.488       4.177
  O      518.364     196.483       1.830
  H      518.993     196.401       4.288
  H      518.963     192.383       0.900
  H      518.349     193.854       0.183
  H      517.326     192.899       1.231

 6  7  8  9  10  11  12  13  14  15  26  29  33  34 0
 6-311+G(2d,p)
 ****
 36  38  39  40  41 0
 6-311+G(2d,p)
 ****
 1  2  3  4  5  16  17  18  19  20  21  22  23  24  25 0
 3-21G
 ****
 27  28  30  31  32  35  37  42  43  44  45  46  47 0
 3-21G
 ****
 48  49 0
 3-21G
 ****


