%nproc=1
%NoSave
%Mem=1900MB
#P OB98/GEN NMR

erre ene a

0 1
  C       22.087      97.515    -258.937
  O       23.475      97.556    -259.206
  H       21.550      97.388    -259.879
  H       21.769      98.450    -258.469
  H       21.854      96.672    -258.280
  P       24.445      97.698    -257.937
  C       26.275      95.922    -258.481
  O       25.908      97.294    -258.456
  C       25.844      95.283    -259.806
  O       26.388      96.074    -260.903
  C       26.356      93.845    -259.992
  O       25.411      93.126    -260.802
  C       27.629      94.072    -260.790
  O       28.056      92.871    -261.388
  C       27.150      95.172    -261.730
  N       30.382      95.053    -265.672
  C       29.348      94.256    -265.329
  N       28.526      94.361    -264.265
  C       28.845      95.438    -263.527
  C       29.871      96.339    -263.746
  C       30.671      96.113    -264.879
  N       31.741      96.908    -265.220
  N       29.896      97.299    -262.750
  C       28.898      96.982    -261.948
  N       28.236      95.868    -262.381
  O       24.016      96.465    -257.010
  O       24.372      98.998    -257.210
  H       27.414      92.567    -262.063
  H       23.338      96.750    -256.370
  H       29.153      93.424    -266.001
  H       28.620      97.514    -261.049
  H       26.485      94.790    -262.515
  H       28.440      94.425    -260.147
  H       26.512      93.314    -259.050
  H       24.752      95.333    -259.891
  H       25.785      95.416    -257.645
  H       27.360      95.834    -258.372
  H       32.281      96.659    -266.034
  H       31.992      97.681    -264.620
  P       24.546      91.950    -260.134
  C       22.324      91.912    -261.502
  O       23.567      91.288    -261.219
  O       23.524      92.771    -259.211
  O       25.319      90.977    -259.302
  H       23.472      92.361    -258.329
  H       21.800      91.344    -262.242
  H       22.497      92.902    -261.869
  H       21.737      91.960    -260.608

 6  7  8  9  10  11  12  13  14  15  25  28  32  33  34  35 0
 6-311+G(2d,p)
 ****
 36  37  40 0
 6-311+G(2d,p)
 ****
 1  2  3  4  5  16  17  18  19  20  21  22  23  24 0
 3-21G
 ****
 26  27  29  30  31  38  39 41  42  43  44  45  46  47  48 0
 3-21G
 ****


