%nproc=1
%NoSave
%Mem=1900MB
#P OB98/GEN NMR

erre ene a

0 1
  C      413.157    -189.504    -105.315
  O      412.295    -189.127    -106.379
  P      411.304    -190.197    -107.052
  C      409.191    -189.079    -106.067
  O      410.019    -190.236    -106.092
  C      408.002    -189.272    -107.003
  O      407.232    -190.412    -106.571
  C      407.024    -188.105    -107.029
  O      407.538    -187.028    -107.799
  C      405.779    -188.779    -107.593
  O      405.882    -188.911    -109.023
  C      405.847    -190.171    -106.933
  N      404.972    -190.293    -105.773
  C      403.727    -190.890    -105.988
  O      403.405    -191.292    -107.104
  N      402.877    -191.047    -104.915
  C      403.229    -190.628    -103.741
  N      402.379    -190.872    -102.708
  C      404.515    -189.948    -103.480
  C      405.331    -189.822    -104.527
  O      411.915    -191.529    -107.327
  O      410.744    -189.463    -108.354
  H      406.736    -189.354    -109.201
  H      411.309    -189.594    -109.157
  H      404.755    -189.606    -102.481
  H      406.299    -189.352    -104.415
  H      405.579    -190.947    -107.660
  H      404.855    -188.240    -107.377
  H      406.819    -187.749    -106.011
  H      408.384    -189.478    -108.010
  H      401.602    -191.496    -102.899
  H      409.780    -188.220    -106.414
  H      402.696    -190.845    -101.744
  H      408.864    -188.893    -105.039
  P      406.626    -185.719    -107.952
  C      407.885    -184.335    -106.166
  O      406.681    -184.976    -106.531
  O      405.143    -186.315    -108.034
  O      406.963    -184.867    -109.134
  H      404.831    -186.336    -108.964
  H      407.685    -183.686    -105.307
  H      408.267    -183.720    -106.985
  H      408.630    -185.078    -105.879
  H      413.733    -188.657    -105.006
  H      413.814    -190.281    -105.646
  H      412.573    -189.858    -104.491

 3  4  5  6  7  8  9  10  11  12  13  23  27  28  29  30  32 0
 6-311+G(2d,p)
 ****
 34  35 0
 6-311+G(2d,p)
 ****
 1  2  14  15  16  17  18  19  20  21  22  24  25  26 0
 3-21G
 ****
 31  33  36  37  38  39  40  41  42  43  44  45  46 0
 3-21G
 ****


