%nproc=1
%NoSave
%Mem=1900MB
#P OB98/GEN NMR

erre ene a

0 1
  C      -98.366     161.653       0.324
  O      -99.696     161.567      -0.190
  P      -99.921     161.128      -1.713
  C     -100.704     158.729      -1.180
  O      -99.735     159.538      -1.829
  C     -100.356     157.238      -1.311
  O     -100.486     156.825      -2.698
  C      -98.928     156.913      -0.854
  O      -98.870     155.833       0.076
  C      -98.176     156.708      -2.157
  O      -97.014     155.907      -2.007
  C      -99.265     156.176      -3.096
  N      -98.941     156.419      -4.504
  C      -98.151     155.468      -5.135
  O      -97.665     154.500      -4.551
  N      -97.879     155.694      -6.459
  C      -98.247     156.796      -7.171
  O      -97.939     156.975      -8.342
  C      -99.028     157.801      -6.434
  C      -99.333     157.568      -5.156
  O      -99.184     161.926      -2.735
  O     -101.508     161.298      -1.902
  H      -96.747     155.579      -2.894
  H     -101.667     161.652      -2.798
  H      -97.321     155.002      -6.935
  H      -99.318     158.698      -6.961
  H      -99.895     158.296      -4.586
  H      -99.394     155.096      -2.974
  H      -97.846     157.689      -2.523
  H      -98.483     157.753      -0.309
  H     -101.085     156.682      -0.714
  H     -101.682     158.905      -1.627
  H     -100.787     159.036      -0.131
  P      -97.968     155.822       1.398
  C     -100.058     155.145       2.773
  O      -98.931     155.991       2.665
  O      -96.784     156.727       1.384
  O      -97.494     154.294       1.497
  H      -96.562     154.266       1.783
  H     -100.781     155.611       3.446
  H      -99.752     154.184       3.196
  H     -100.531     154.986       1.801
  H      -98.399     161.958       1.349
  H      -97.810     162.370      -0.243
  H      -97.893     160.696       0.251

 3  4  5  6  7  8  9  10  11  12  13  23  28  29  30  31  32 0
 6-311+G(2d,p)
 ****
 33  34 0
 6-311+G(2d,p)
 ****
 1  2  14  15  16  17  18  19  20  21  22  24  25  26  27 0
 3-21G
 ****
 35  36  37  38  39  40  41  42  43  44  45 0
 3-21G
 ****


