%nproc=1
%NoSave
%Mem=1900MB
#P OB98/GEN NMR

erre ene a

0 1
  C     -189.690    -121.468    -601.510
  O     -188.285    -121.700    -601.367
  P     -187.404    -120.488    -600.769
  C     -185.467    -119.040    -601.636
  O     -186.604    -119.790    -601.968
  C     -185.431    -117.687    -602.381
  O     -185.214    -117.871    -603.798
  C     -186.726    -116.875    -602.210
  O     -186.362    -115.481    -602.196
  C     -187.474    -117.167    -603.497
  O     -188.465    -116.175    -603.754
  C     -186.318    -117.238    -604.504
  N     -186.660    -117.940    -605.733
  C     -187.457    -117.257    -606.648
  O     -187.908    -116.141    -606.379
  N     -187.776    -117.868    -607.839
  C     -187.367    -119.084    -608.070
  N     -187.707    -119.631    -609.266
  C     -186.557    -119.862    -607.102
  C     -186.250    -119.223    -605.971
  O     -186.268    -121.245    -599.925
  O     -188.200    -119.565    -599.897
  H     -188.905    -116.400    -604.617
  H     -186.210    -120.873    -599.024
  H     -186.244    -120.874    -607.325
  H     -185.657    -119.706    -605.206
  H     -185.985    -116.214    -604.779
  H     -187.977    -118.140    -603.432
  H     -187.285    -117.119    -601.303
  H     -184.589    -117.092    -601.992
  H     -188.257    -119.072    -609.901
  H     -184.548    -119.594    -601.900
  H     -187.455    -120.558    -609.539
  H     -185.424    -118.887    -600.553
  P     -186.318    -114.728    -600.780
  C     -188.118    -113.795    -599.198
  O     -187.862    -114.347    -600.473
  O     -185.723    -113.296    -601.210
  O     -185.532    -115.339    -599.666
  H     -185.572    -112.745    -600.409
  H     -189.175    -113.480    -599.171
  H     -187.485    -112.928    -599.016
  H     -187.971    -114.564    -598.427
  H     -190.157    -122.342    -601.914
  H     -189.850    -120.641    -602.170
  H     -190.114    -121.247    -600.553

 3  4  5  6  7  8  9  10  11  12  13  21  23  27  28  29  30  32 0
 6-311+G(2d,p)
 ****
 34  35 0
 6-311+G(2d,p)
 ****
 1  2  14  15  16  17  18  19  20  22  24  25  26 0
 3-21G
 ****
 31  33  36  37  38  39  40  41  42  43  44  45  46 0
 3-21G
 ****


