%nproc=1
%NoSave
%Mem=1900MB
#P OB98/GEN NMR

erre ene a

0 1
  C     1919.106    -238.618     781.208
  O     1917.694    -238.697     781.194
  H     1919.427    -238.037     780.343
  H     1919.544    -239.617     781.146
  H     1919.440    -238.115     782.114
  P     1917.006    -239.556     782.359
  C     1916.127    -237.404     783.472
  O     1916.946    -238.557     783.614
  C     1915.466    -237.062     784.803
  O     1914.731    -238.230     785.276
  C     1916.446    -236.657     785.913
  O     1915.827    -235.652     786.742
  C     1916.584    -237.912     786.741
  O     1917.025    -237.671     788.071
  C     1915.187    -238.511     786.608
  N     1914.662    -242.070     790.236
  C     1914.446    -240.724     790.224
  N     1914.593    -239.862     789.210
  C     1914.941    -240.510     788.080
  C     1915.180    -241.867     787.926
  C     1915.048    -242.658     789.068
  N     1915.300    -244.015     789.088
  N     1915.567    -242.130     786.613
  C     1915.542    -240.956     785.999
  N     1915.196    -239.944     786.853
  O     1917.629    -240.884     782.641
  O     1915.477    -239.604     781.894
  H     1916.381    -237.058     788.484
  H     1915.161    -238.730     781.608
  H     1914.138    -240.294     791.179
  H     1915.784    -240.793     784.953
  H     1914.467    -238.067     787.322
  H     1917.332    -238.579     786.260
  H     1917.404    -236.307     785.530
  H     1914.708    -236.274     784.620
  H     1915.372    -237.561     782.709
  H     1915.167    -244.499     789.967
  H     1915.573    -244.486     788.247
  H     1916.768    -236.564     783.147
  P     1915.897    -234.122     786.223
  C     1913.350    -233.718     786.459
  O     1914.470    -233.725     785.571
  O     1917.061    -233.761     785.388
  O     1915.869    -233.289     787.596
  H     1916.520    -232.556     787.533
  H     1912.468    -233.443     785.919
  H     1913.522    -233.012     787.244
  H     1913.221    -234.694     786.878

 6  7  8  9  10  11  12  13  14  15  25  28  32  33  34  35 0
 6-311+G(2d,p)
 ****
 36  39  40 0
 6-311+G(2d,p)
 ****
 1  2  3  4  5  16  17  18  19  20  21  22  23  24 0
 3-21G
 ****
 26  27  29  30  31  37  38  41  42  43  44  45  46  47 0
 3-21G
 ****
 48 0
 3-21G
 ****


