%nproc=1
%NoSave
%Mem=1900MB
#P OB98/GEN NMR

erre ene a

0 1
  C      -55.218      14.993      56.673
  O      -54.994      16.393      56.484
  P      -54.228      16.810      55.136
  C      -55.112      19.244      55.058
  O      -53.980      18.396      55.180
  C      -54.712      20.723      55.097
  O      -54.210      21.094      56.415
  C      -53.623      21.094      54.085
  O      -53.898      22.432      53.646
  C      -52.364      21.102      54.932
  O      -51.313      21.829      54.304
  C      -52.920      21.714      56.217
  N      -48.330      22.588      58.129
  C      -48.834      22.849      56.870
  N      -48.009      23.481      56.008
  N      -50.041      22.520      56.489
  C      -50.767      21.929      57.470
  C      -50.388      21.631      58.757
  C      -49.037      21.972      59.154
  O      -48.545      21.768      60.257
  N      -51.417      21.058      59.467
  C      -52.390      20.952      58.576
  N      -52.066      21.514      57.372
  O      -55.350      16.628      54.009
  O      -53.018      15.982      54.854
  H      -50.612      21.975      54.975
  H      -55.218      15.785      53.537
  H      -47.387      22.847      58.363
  H      -53.351      20.503      58.760
  H      -53.069      22.799      56.129
  H      -52.019      20.075      55.106
  H      -47.084      23.806      56.252
  H      -53.552      20.421      53.226
  H      -48.366      23.720      55.092
  H      -55.610      21.324      54.910
  H      -55.817      19.044      55.869
  H      -55.641      19.002      54.130
  P      -54.286      22.649      52.108
  C      -56.416      23.973      52.744
  O      -55.199      23.961      52.026
  O      -55.319      21.457      51.823
  O      -53.132      22.594      51.161
  H      -55.167      21.102      50.927
  H      -56.675      25.009      52.980
  H      -56.345      23.407      53.675
  H      -57.207      23.545      52.122
  H      -55.732      14.836      57.598
  H      -54.279      14.481      56.696
  H      -55.811      14.615      55.866

 3  4  5  6  7  8  9  10  11  12  23  26  30  31 0
 6-311+G(2d,p)
 ****
 33  35  36  37  38 0
 6-311+G(2d,p)
 ****
 1  2  13  14  15  16  17  18  19  20  21  22  24  25 0
 3-21G
 ****
 27  28  29  32  34  39  40  41  42  43  44  45  46  47  48  49 0
 3-21G
 ****


