%nproc=1
%NoSave
%Mem=1900MB
#P OB98/GEN NMR

erre ene a

0 1
  C       39.122     197.368     -69.517
  O       40.177     196.529     -69.938
  H       39.544     198.314     -69.172
  H       38.587     196.901     -68.686
  H       38.429     197.573     -70.336
  P       39.828     195.197     -70.757
  C       39.432     196.253     -73.077
  O       38.839     195.639     -71.941
  C       38.731     195.809     -74.365
  O       37.377     196.346     -74.372
  C       39.422     196.292     -75.649
  O       39.179     195.308     -76.663
  C       38.654     197.563     -75.954
  O       38.839     197.973     -77.290
  C       37.235     197.137     -75.567
  N       36.345     198.280     -75.367
  C       35.622     198.704     -76.474
  O       35.728     198.187     -77.588
  N       34.798     199.778     -76.280
  C       34.678     200.492     -75.123
  O       33.947     201.467     -75.013
  C       35.502     200.024     -73.995
  C       36.282     198.954     -74.164
  O       39.350     194.042     -69.944
  O       41.179     194.853     -71.545
  H       38.391     198.833     -77.448
  H       41.256     193.889     -71.674
  H       34.257     200.092     -77.071
  H       35.438     200.573     -73.067
  H       36.900     198.587     -73.353
  H       36.797     196.499     -76.345
  H       38.994     198.382     -75.312
  H       40.494     196.458     -75.525
  H       38.639     194.717     -74.354
  H       40.486     195.957     -73.108
  H       39.372     197.341     -72.978
  P       39.585     193.767     -76.472
  C       37.470     192.889     -75.289
  O       38.853     193.202     -75.158
  O       41.055     193.510     -76.512
  O       38.843     193.000     -77.667
  H       39.345     192.198     -77.904
  H       37.097     192.525     -74.355
  H       37.344     192.138     -76.041
  H       36.930     193.769     -75.570

 6  7  8  9  10  11  12  13  14  15  16  26  31  32  33  34  35 0
 6-311+G(2d,p)
 ****
 36  37 0
 6-311+G(2d,p)
 ****
 1  2  3  4  5  17  18  19  20  21  22  23  24  25 0
 3-21G
 ****
 27  28  29  30  38  39  40  41  42  43  44  45 0
 3-21G
 ****


