%nproc=1
%NoSave
%Mem=1900MB
#P OB98/GEN NMR

erre ene a

0 1
  C      975.282      88.772      71.721
  O      974.592      88.348      72.881
  H      974.985      88.172      70.861
  H      975.023      89.820      71.522
  H      976.364      88.702      71.875
  P      974.842      86.837      73.359
  C      972.371      86.031      73.326
  O      973.647      85.978      72.712
  C      971.447      85.003      72.680
  O      971.358      85.235      71.255
  C      971.911      83.556      72.838
  O      971.565      83.017      74.095
  C      971.124      82.890      71.717
  O      969.750      82.711      72.128
  C      971.215      83.940      70.598
  N      972.902      81.263      66.580
  C      971.740      81.225      67.269
  N      971.368      81.966      68.334
  C      972.348      82.826      68.669
  C      973.579      82.972      68.075
  C      973.853      82.145      66.962
  N      975.045      82.176      66.271
  N      974.333      83.941      68.729
  C      973.543      84.383      69.686
  N      972.332      83.733      69.699
  O      974.463      86.872      74.919
  O      976.212      86.295      73.117
  H      969.255      82.462      71.327
  H      974.874      86.106      75.373
  H      971.012      80.489      66.916
  H      973.795      85.162      70.383
  H      970.307      83.986      69.991
  H      971.515      81.903      71.454
  H      972.982      83.450      72.625
  H      970.438      85.136      73.101
  H      971.950      87.029      73.187
  H      975.211      81.419      65.626
  H      975.808      82.726      66.650
  H      972.476      85.824      74.401
  P      972.114      81.547      74.448
  C      969.654      80.703      74.371
  O      970.990      80.518      73.923
  O      971.977      81.470      76.035
  O      973.514      81.275      73.984
  H      972.621      80.851      76.416
  H      969.026      79.950      73.942
  H      969.308      81.670      74.070
  H      969.622      80.629      75.438

 6  7  8  9  10  11  12  13  14  15  25  28  32  33  34  35 0
 6-311+G(2d,p)
 ****
 36  39  40 0
 6-311+G(2d,p)
 ****
 1  2  3  4  5  16  17  18  19  20  21  22  23  24 0
 3-21G
 ****
 26  27  29  30  31  37  38  41  42  43  44  45  46  47 0
 3-21G
 ****
 48 0
 3-21G
 ****


