%nproc=1
%NoSave
%Mem=1900MB
#P OB98/GEN NMR

erre ene a

0 1
  C     -213.002    -554.680     109.912
  O     -212.044    -555.160     108.986
  H     -212.586    -553.811     110.428
  H     -213.227    -555.457     110.648
  H     -213.917    -554.382     109.393
  P     -212.543    -556.287     107.963
  C     -210.856    -556.061     105.967
  O     -211.257    -556.777     107.128
  C     -209.784    -556.844     105.212
  O     -208.572    -556.927     105.988
  C     -210.140    -558.298     104.950
  O     -211.124    -558.443     103.950
  C     -208.781    -558.855     104.549
  O     -208.504    -558.631     103.161
  C     -207.815    -558.034     105.441
  N     -207.203    -558.850     106.472
  C     -206.329    -559.843     106.013
  O     -206.107    -559.955     104.804
  N     -205.760    -560.691     106.922
  C     -206.061    -560.584     108.179
  N     -205.490    -561.484     109.027
  C     -206.983    -559.556     108.706
  C     -207.515    -558.732     107.806
  O     -213.372    -555.436     106.890
  O     -213.313    -557.401     108.585
  H     -208.351    -557.668     103.063
  H     -212.898    -554.653     106.560
  H     -207.194    -559.502     109.767
  H     -208.198    -557.945     108.107
  H     -207.012    -557.595     104.831
  H     -208.721    -559.932     104.717
  H     -210.448    -558.787     105.884
  H     -209.566    -556.309     104.278
  H     -204.909    -562.201     108.616
  H     -210.483    -555.065     106.235
  H     -205.712    -561.544     110.011
  H     -211.741    -555.923     105.338
  P     -212.457    -559.294     104.208
  C     -214.140    -557.527     103.380
  O     -213.541    -558.796     103.132
  O     -212.946    -559.298     105.617
  O     -212.074    -560.744     103.646
  H     -211.829    -560.766     102.705
  H     -214.840    -557.305     102.602
  H     -213.381    -556.773     103.404
  H     -214.649    -557.551     104.321

 6  7  8  9  10  11  12  13  14  15  16  26  30  31  32  33  35 0
 6-311+G(2d,p)
 ****
 37  38 0
 6-311+G(2d,p)
 ****
 1  2  3  4  5  17  18  19  20  21  22  23  24  25 0
 3-21G
 ****
 27  28  29  34  36  39  40  41  42  43  44  45  46 0
 3-21G
 ****


