%nproc=1
%NoSave
%Mem=1900MB
#P OB98/GEN NMR

erre ene a

0 1
  C      285.642      76.685      72.472
  O      285.873      76.034      71.240
  H      286.467      77.367      72.700
  H      284.719      77.265      72.397
  H      285.534      75.951      73.274
  P      287.185      75.115      71.140
  C      289.183      76.067      69.779
  O      288.417      76.131      70.975
  C      288.662      77.095      68.781
  O      288.228      78.287      69.474
  C      289.696      77.564      67.764
  O      289.842      76.651      66.689
  C      289.062      78.863      67.300
  O      287.987      78.579      66.384
  C      288.506      79.427      68.614
  N      289.898      84.311      69.230
  C      288.952      83.733      68.459
  N      288.648      82.425      68.349
  C      289.437      81.684      69.143
  C      290.448      82.131      69.977
  C      290.667      83.518      70.011
  N      291.641      84.111      70.786
  N      291.063      81.069      70.610
  C      290.411      80.005      70.188
  N      289.425      80.324      69.293
  O      287.068      74.447      69.689
  O      287.352      74.103      72.223
  H      287.271      78.175      66.911
  H      287.617      73.642      69.646
  H      288.365      84.414      67.849
  H      290.613      78.989      70.501
  H      287.564      79.970      68.473
  H      289.760      79.520      66.780
  H      290.659      77.785      68.239
  H      287.786      76.666      68.278
  H      289.093      75.066      69.347
  H      291.838      85.083      70.598
  H      292.311      83.517      71.251
  H      290.234      76.263      70.014
  P      291.105      76.852      65.720
  C      290.044      77.510      63.438
  O      290.660      77.952      64.644
  O      291.135      75.495      64.876
  O      292.398      77.114      66.422
  H      292.039      75.300      64.563
  H      289.807      78.356      62.828
  H      289.147      76.976      63.671
  H      290.716      76.866      62.910

 6  7  8  9  10  11  12  13  14  15  25  28  32  33  34  35 0
 6-311+G(2d,p)
 ****
 36  39  40 0
 6-311+G(2d,p)
 ****
 1  2  3  4  5  16  17  18  19  20  21  22  23  24 0
 3-21G
 ****
 26  27  29  30  31  37  38  41  42  43  44  45  46  47 0
 3-21G
 ****
 48 0
 3-21G
 ****


