%nproc=1
%NoSave
%Mem=1900MB
#P OB98/GEN NMR

erre ene a

0 1
  C      -21.837      -2.787     -61.751
  O      -21.785      -1.545     -61.071
  P      -23.159      -0.730     -60.902
  C      -25.089      -0.220     -62.570
  O      -23.696      -0.436     -62.384
  C      -25.323       0.721     -63.747
  O      -25.035       2.085     -63.378
  C      -24.442       0.439     -64.957
  O      -24.940      -0.624     -65.752
  C      -24.545       1.756     -65.707
  O      -25.779       1.806     -66.448
  C      -24.568       2.777     -64.561
  N      -20.716       5.345     -66.601
  C      -21.974       5.090     -67.108
  N      -22.218       5.533     -68.360
  N      -22.911       4.462     -66.448
  C      -22.521       4.069     -65.210
  C      -21.304       4.266     -64.597
  C      -20.273       4.952     -65.344
  O      -19.125       5.160     -64.970
  N      -21.288       3.732     -63.336
  C      -22.491       3.216     -63.181
  N      -23.261       3.356     -64.306
  O      -22.676       0.708     -60.395
  O      -24.142      -1.355     -59.970
  H      -25.717       2.582     -67.040
  H      -23.426       1.193     -60.002
  H      -20.026       5.829     -67.152
  H      -22.840       2.719     -62.285
  H      -25.267       3.595     -64.758
  H      -23.735       1.900     -66.428
  H      -21.519       5.968     -68.944
  H      -23.400       0.270     -64.659
  H      -23.110       5.306     -68.781
  H      -26.385       0.662     -64.022
  H      -25.509       0.217     -61.662
  H      -25.581      -1.181     -62.749
  P      -23.866      -1.439     -66.625
  C      -21.947      -0.644     -68.185
  O      -23.203      -0.357     -67.601
  O      -24.783      -2.322     -67.593
  O      -22.922      -2.271     -65.822
  H      -24.310      -3.129     -67.868
  H      -21.775       0.057     -69.008
  H      -21.921      -1.661     -68.582
  H      -21.155      -0.516     -67.443
  H      -20.857      -3.214     -61.789
  H      -22.198      -2.634     -62.747
  H      -22.496      -3.451     -61.231

 3  4  5  6  7  8  9  10  11  12  23  26  30  31 0
 6-311+G(2d,p)
 ****
 33  35  36  37  38 0
 6-311+G(2d,p)
 ****
 1  2  13  14  15  16  17  18  19  20  21  22  24  25 0
 3-21G
 ****
 27  28  29  32  34  39  40  41  42  43  44  45  46  47  48  49 0
 3-21G
 ****


