%nproc=1
%NoSave
%Mem=1900MB
#P OB98/GEN NMR

erre ene a

0 1
  C     -355.730      18.992     563.494
  O     -355.979      18.076     564.545
  P     -355.878      18.610     566.050
  C     -354.197      16.702     566.640
  O     -355.405      17.379     566.959
  C     -353.869      15.681     567.733
  O     -353.295      16.343     568.883
  C     -355.083      14.930     568.257
  O     -355.479      13.893     567.367
  C     -354.581      14.424     569.597
  O     -353.834      13.206     569.440
  C     -353.660      15.579     570.055
  N     -354.272      16.415     571.076
  C     -354.129      15.974     572.390
  O     -353.542      14.926     572.687
  N     -354.712      16.758     573.355
  C     -355.459      17.879     573.132
  O     -356.013      18.503     574.038
  C     -355.603      18.281     571.724
  C     -355.025      17.543     570.776
  O     -357.402      18.840     566.480
  O     -355.062      19.849     566.210
  H     -354.480      12.498     569.242
  H     -357.468      19.619     567.064
  H     -354.603      16.467     574.314
  H     -356.195      19.164     571.509
  H     -355.125      17.812     569.730
  H     -352.715      15.174     570.456
  H     -355.398      14.207     570.288
  H     -355.917      15.632     568.421
  H     -353.124      14.977     567.339
  H     -353.384      17.433     566.557
  H     -354.309      16.203     565.670
  P     -356.617      14.243     566.296
  C     -357.609      11.897     566.890
  O     -357.262      12.834     565.889
  O     -355.729      14.681     565.034
  O     -357.571      15.298     566.773
  H     -354.890      14.185     565.000
  H     -357.971      12.394     567.802
  H     -356.726      11.295     567.132
  H     -358.390      11.244     566.508
  H     -355.834      18.493     562.553
  H     -354.736      19.378     563.585
  H     -356.432      19.798     563.550

 3  4  5  6  7  8  9  10  11  12  13  23  28  29  30  31  32 0
 6-311+G(2d,p)
 ****
 33  34 0
 6-311+G(2d,p)
 ****
 1  2  14  15  16  17  18  19  20  21  22  24  25  26 0
 3-21G
 ****
 27  35  36  37  38  39  40  41  42  43  44  45 0
 3-21G
 ****


