%nproc=1
%NoSave
%Mem=1900MB
#P OB98/GEN NMR

erre ene a

0 1
  C       10.897      32.288      -0.935
  O        9.489      32.403      -0.960
  H       11.173      31.544      -0.184
  H       11.358      33.243      -0.667
  H       11.268      31.954      -1.908
  P        8.833      33.523      -1.905
  C        9.145      35.271      -0.018
  O        8.233      34.604      -0.876
  C        8.394      35.960       1.118
  O        7.241      36.670       0.622
  C        7.840      35.019       2.183
  O        8.835      34.498       3.049
  C        6.884      35.961       2.896
  O        7.630      36.855       3.741
  C        6.263      36.720       1.698
  N        4.990      36.151       1.260
  C        3.878      37.001       1.293
  O        3.991      38.164       1.677
  N        2.652      36.502       0.926
  C        2.542      35.259       0.575
  N        1.296      34.802       0.267
  C        3.689      34.334       0.509
  C        4.869      34.837       0.865
  O        7.879      33.033      -2.946
  O       10.084      34.315      -2.510
  H        7.980      36.324       4.479
  H        9.730      35.014      -3.113
  H        3.541      33.304       0.217
  H        5.756      34.214       0.858
  H        6.111      37.777       1.945
  H        6.159      35.443       3.530
  H        7.259      34.211       1.726
  H        9.069      36.708       1.554
  H        0.528      35.453       0.365
  H        9.706      35.997      -0.615
  H        1.086      33.810       0.258
  H        9.846      34.552       0.418
  P        9.188      32.935       2.933
  C        7.299      32.167       4.555
  O        8.691      32.249       4.296
  O       10.781      32.920       3.061
  O        8.704      32.251       1.694
  H       11.205      32.933       2.181
  H        7.139      31.686       5.497
  H        6.825      31.601       3.781
  H        6.883      33.152       4.582

 6  7  8  9  10  11  12  13  14  15  16  26  30  31  32  33  35 0
 6-311+G(2d,p)
 ****
 37  38 0
 6-311+G(2d,p)
 ****
 1  2  3  4  5  17  18  19  20  21  22  23  24  25 0
 3-21G
 ****
 27  28  29  34  36  39  40  41  42  43  44  45  46 0
 3-21G
 ****


