%nproc=1
%NoSave
%Mem=1900MB
#P OB98/GEN NMR

erre ene a

0 1
  C     -106.573     117.505     143.427
  O     -105.549     116.523     143.570
  P     -104.033     117.001     143.372
  C     -104.281     117.917     140.927
  O     -104.029     118.187     142.293
  C     -103.246     118.619     140.026
  O     -103.350     120.051     140.239
  C     -101.791     118.271     140.311
  O     -101.001     118.634     139.174
  C     -101.471     119.198     141.462
  O     -100.065     119.354     141.638
  C     -102.247     120.479     141.082
  N     -102.763     121.228     142.249
  C     -101.851     121.689     143.196
  O     -100.636     121.508     143.122
  N     -102.380     122.342     144.274
  C     -103.698     122.615     144.477
  O     -104.128     123.127     145.504
  C     -104.600     122.232     143.384
  C     -104.104     121.559     142.344
  O     -103.348     115.774     142.610
  O     -103.335     117.331     144.650
  H      -99.944     119.879     142.462
  H     -102.777     115.274     143.223
  H     -101.737     122.624     145.000
  H     -105.649     122.491     143.477
  H     -104.763     121.252     141.536
  H     -101.615     121.167     140.506
  H     -101.868     118.781     142.392
  H     -101.615     117.222     140.568
  H     -103.493     118.424     138.975
  H     -105.292     118.237     140.663
  H     -104.238     116.836     140.751
  P     -101.101     117.714     137.865
  C      -99.029     116.297     138.424
  O     -100.434     116.307     138.251
  O     -100.623     118.329     136.593
  O     -102.663     117.353     137.800
  H     -102.893     117.057     136.899
  H      -98.771     115.517     139.144
  H      -98.665     117.261     138.794
  H      -98.552     116.072     137.467
  H     -107.528     117.050     143.584
  H     -106.534     117.920     142.442
  H     -106.425     118.282     144.148

 3  4  5  6  7  8  9  10  11  12  13  23  28  29  30  31  32 0
 6-311+G(2d,p)
 ****
 33  34 0
 6-311+G(2d,p)
 ****
 1  2  14  15  16  17  18  19  20  21  22  24  25  26  27 0
 3-21G
 ****
 35  36  37  38  39  40  41  42  43  44  45 0
 3-21G
 ****


