%nproc=1
%NoSave
%Mem=1900MB
#P OB98/GEN NMR

erre ene a

0 1
  C       19.751     -37.260     -28.381
  O       19.666     -37.939     -29.617
  H       19.924     -37.994     -27.588
  H       18.815     -36.735     -28.175
  H       20.582     -36.550     -28.392
  P       19.455     -37.032     -30.923
  C       21.088     -35.498     -32.243
  O       20.705     -36.027     -30.980
  C       21.384     -34.007     -32.110
  O       20.176     -33.309     -31.733
  C       22.408     -33.666     -31.033
  O       23.735     -33.890     -31.473
  C       22.092     -32.198     -30.779
  O       22.733     -31.348     -31.738
  C       20.570     -32.147     -30.970
  N       18.830     -29.097     -27.277
  C       19.442     -28.834     -28.453
  N       19.859     -29.708     -29.394
  C       19.576     -30.968     -29.024
  C       18.965     -31.389     -27.857
  C       18.578     -30.386     -26.953
  N       17.988     -30.655     -25.742
  N       18.892     -32.767     -27.818
  C       19.440     -33.170     -28.946
  N       19.863     -32.118     -29.707
  O       18.229     -36.088     -30.509
  O       19.184     -37.783     -32.183
  H       22.301     -31.520     -32.597
  H       17.394     -36.478     -30.830
  H       19.624     -27.784     -28.663
  H       19.561     -34.204     -29.249
  H       20.254     -31.265     -31.539
  H       22.429     -31.885     -29.790
  H       22.200     -34.236     -30.119
  H       21.706     -33.627     -33.087
  H       20.270     -35.640     -32.958
  H       21.972     -36.037     -32.600
  H       17.758     -29.886     -25.133
  H       17.893     -31.617     -25.445
  P       24.895     -34.009     -30.375
  C       25.531     -35.814     -28.616
  O       24.503     -35.206     -29.381
  O       24.693     -32.695     -29.485
  O       26.275     -34.098     -30.934
  H       25.335     -32.007     -29.742
  H       25.112     -36.588     -28.008
  H       25.992     -35.079     -27.990
  H       26.264     -36.233     -29.273

 6  7  8  9  10  11  12  13  14  15  25  28  32  33  34  35 0
 6-311+G(2d,p)
 ****
 36  37  40 0
 6-311+G(2d,p)
 ****
 1  2  3  4  5  16  17  18  19  20  21  22  23  24 0
 3-21G
 ****
 26  27  29  30  31  38  39 41  42  43  44  45  46  47  48 0
 3-21G
 ****


