%nproc=1
%NoSave
%Mem=1900MB
#P OB98/GEN NMR

erre ene a

0 1
  C      677.724     384.375     -29.817
  O      676.509     383.645     -29.792
  H      678.513     383.758     -29.382
  H      677.619     385.286     -29.221
  H      677.996     384.628     -30.844
  P      675.279     384.281     -30.596
  C      673.734     384.510     -28.487
  O      673.941     383.936     -29.774
  C      672.391     384.055     -27.920
  O      671.326     384.312     -28.856
  C      672.296     382.562     -27.669
  O      673.046     382.146     -26.548
  C      670.791     382.401     -27.483
  O      670.390     382.686     -26.137
  C      670.227     383.459     -28.463
  N      669.566     382.839     -29.601
  C      668.168     382.797     -29.529
  O      667.583     383.280     -28.560
  N      667.477     382.171     -30.534
  C      668.129     381.616     -31.514
  N      667.386     380.986     -32.467
  C      669.602     381.640     -31.627
  C      670.252     382.260     -30.644
  O      675.175     383.330     -31.879
  O      675.427     385.729     -30.916
  H      670.664     383.612     -25.957
  H      675.176     382.385     -31.664
  H      670.091     381.171     -32.468
  H      671.333     382.326     -30.641
  H      669.497     384.103     -27.956
  H      670.464     381.382     -27.700
  H      672.586     382.005     -28.572
  H      672.196     384.628     -27.004
  H      666.383     380.949     -32.324
  H      673.771     385.605     -28.542
  H      667.785     380.456     -33.225
  H      674.554     384.184     -27.840
  P      674.224     381.066     -26.686
  C      673.381     380.047     -24.473
  O      674.511     380.507     -25.207
  O      675.436     381.529     -27.416
  O      673.489     379.815     -27.375
  H      672.742     379.453     -26.867
  H      673.697     379.702     -23.511
  H      672.913     379.244     -25.004
  H      672.683     380.849     -24.353

 6  7  8  9  10  11  12  13  14  15  16  26  30  31  32  33  35 0
 6-311+G(2d,p)
 ****
 37  38 0
 6-311+G(2d,p)
 ****
 1  2  3  4  5  17  18  19  20  21  22  23  24  25 0
 3-21G
 ****
 27  28  29  34  36  39  40  41  42  43  44  45  46 0
 3-21G
 ****


