%nproc=1
%NoSave
%Mem=1900MB
#P OB98/GEN NMR

erre ene a

0 1
  C      391.222    -216.892    -227.054
  O      390.571    -217.831    -226.220
  H      392.181    -217.294    -227.398
  H      390.590    -216.696    -227.923
  H      391.381    -215.954    -226.514
  P      391.327    -218.233    -224.866
  C      391.093    -216.062    -223.463
  O      391.934    -216.871    -224.270
  C      391.933    -215.100    -222.625
  O      392.541    -215.805    -221.524
  C      393.082    -214.440    -223.377
  O      392.640    -213.346    -224.164
  C      393.951    -213.977    -222.219
  O      393.408    -212.765    -221.659
  C      393.794    -215.135    -221.221
  N      398.354    -216.467    -219.319
  C      397.493    -215.480    -218.989
  N      396.287    -215.202    -219.525
  C      395.989    -216.082    -220.496
  C      396.752    -217.150    -220.930
  C      397.998    -217.329    -220.303
  N      398.901    -218.303    -220.700
  N      396.121    -217.821    -221.958
  C      395.000    -217.153    -222.153
  N      394.871    -216.101    -221.289
  O      392.615    -219.026    -225.399
  O      390.527    -219.054    -223.910
  H      392.499    -212.972    -221.373
  H      392.437    -219.983    -225.365
  H      397.816    -214.825    -218.186
  H      394.259    -217.395    -222.902
  H      393.728    -214.783    -220.185
  H      394.983    -213.763    -222.508
  H      393.644    -215.167    -223.976
  H      391.258    -214.342    -222.207
  H      390.502    -216.702    -222.797
  H      399.870    -218.049    -220.530
  H      398.690    -218.730    -221.590
  H      390.414    -215.504    -224.114
  P      393.710    -212.631    -225.125
  C      392.532    -213.761    -227.130
  O      393.764    -213.502    -226.474
  O      395.102    -212.961    -224.403
  O      393.527    -211.166    -225.303
  H      395.577    -212.128    -224.215
  H      392.711    -214.346    -228.008
  H      392.074    -212.835    -227.407
  H      391.882    -214.297    -226.470

 6  7  8  9  10  11  12  13  14  15  25  28  32  33  34  35 0
 6-311+G(2d,p)
 ****
 36  39  40 0
 6-311+G(2d,p)
 ****
 1  2  3  4  5  16  17  18  19  20  21  22  23  24 0
 3-21G
 ****
 26  27  29  30  31  37  38  41  42  43  44  45  46  47  48 0
 3-21G
 ****


