%nproc=1
%NoSave
%Mem=1900MB
#P OB98/GEN NMR

erre ene a

0 1
  C       52.079     458.155    -280.345
  O       52.305     459.026    -281.435
  H       52.404     457.152    -280.621
  H       51.012     458.129    -280.102
  H       52.653     458.482    -279.469
  P       52.062     460.591    -281.172
  C       54.451     461.195    -280.257
  O       53.071     460.994    -279.994
  C       54.975     462.425    -279.508
  O       54.830     462.196    -278.081
  C       56.445     462.733    -279.784
  O       56.616     464.155    -279.786
  C       57.161     462.145    -278.584
  O       58.434     462.749    -278.361
  C       56.123     462.378    -277.474
  N       56.315     461.485    -276.332
  C       57.441     461.708    -275.537
  O       58.231     462.612    -275.819
  N       57.677     460.880    -274.474
  C       56.894     459.869    -274.253
  N       57.192     459.073    -273.195
  C       55.713     459.568    -275.090
  C       55.481     460.418    -276.093
  O       50.629     460.585    -280.461
  O       52.142     461.447    -282.398
  H       58.385     463.688    -278.641
  H       50.538     459.900    -279.781
  H       55.093     458.714    -274.874
  H       54.633     460.277    -276.755
  H       56.177     463.417    -277.106
  H       57.319     461.073    -278.730
  H       56.798     462.321    -280.734
  H       54.337     463.282    -279.760
  H       58.024     459.300    -272.663
  H       54.619     461.327    -281.332
  H       56.688     458.231    -272.960
  H       54.991     460.299    -279.936
  P       57.102     464.895    -281.127
  C       54.877     464.565    -282.406
  O       56.278     464.315    -282.373
  O       58.581     464.981    -281.315
  O       56.479     466.366    -280.957
  H       57.147     467.008    -281.267
  H       54.457     464.124    -283.286
  H       54.703     465.621    -282.418
  H       54.418     464.138    -281.539

 6  7  8  9  10  11  12  13  14  15  16  26  30  31  32  33  35 0
 6-311+G(2d,p)
 ****
 37  38 0
 6-311+G(2d,p)
 ****
 1  2  3  4  5  17  18  19  20  21  22  23  24  25 0
 3-21G
 ****
 27  28  29  34  36  39  40  41  42  43  44  45  46 0
 3-21G
 ****


