%nproc=1
%NoSave
%Mem=1900MB
#P OB98/GEN NMR

erre ene a

0 1
  C     -160.945    -335.455    -381.572
  O     -161.428    -336.327    -380.550
  P     -160.443    -337.419    -379.915
  C     -159.818    -335.878    -377.933
  O     -159.347    -336.681    -379.010
  C     -159.411    -336.508    -376.597
  O     -160.021    -337.805    -376.414
  C     -157.914    -336.764    -376.490
  O     -157.080    -335.627    -376.390
  C     -157.839    -337.781    -375.364
  O     -157.874    -337.156    -374.083
  C     -159.131    -338.602    -375.601
  N     -158.870    -339.903    -376.224
  C     -159.231    -341.021    -375.475
  O     -159.704    -340.953    -374.344
  N     -158.993    -342.233    -376.070
  C     -158.411    -342.432    -377.289
  O     -158.204    -343.545    -377.759
  C     -158.026    -341.216    -378.017
  C     -158.266    -340.023    -377.460
  O     -159.907    -338.436    -380.864
  O     -161.373    -338.129    -378.812
  H     -157.081    -336.596    -374.007
  H     -161.188    -339.087    -378.842
  H     -159.259    -343.053    -375.546
  H     -157.562    -341.334    -378.984
  H     -157.996    -339.117    -377.987
  H     -159.647    -338.787    -374.652
  H     -156.914    -338.367    -375.408
  H     -157.601    -337.283    -377.407
  H     -159.768    -335.861    -375.787
  H     -160.906    -335.785    -377.991
  H     -159.410    -334.866    -378.039
  P     -156.646    -334.744    -377.658
  C     -157.912    -332.568    -377.033
  O     -157.786    -333.653    -377.925
  O     -156.091    -335.462    -378.841
  O     -155.475    -333.840    -377.025
  H     -154.815    -333.665    -377.716
  H     -158.751    -331.936    -377.357
  H     -157.003    -331.965    -377.027
  H     -158.126    -332.934    -376.024
  H     -161.730    -334.795    -381.878
  H     -160.618    -336.034    -382.410
  H     -160.125    -334.882    -381.193

 3  4  5  6  7  8  9  10  11  12  13  23  28  29  30  31  32 0
 6-311+G(2d,p)
 ****
 33  34 0
 6-311+G(2d,p)
 ****
 1  2  14  15  16  17  18  19  20  21  22  24  25  26  27 0
 3-21G
 ****
 35  36  37  38  39  40  41  42  43  44  45 0
 3-21G
 ****


