%nproc=1
%NoSave
%Mem=1900MB
#P OB98/GEN NMR

erre ene a

0 1
  C      240.520    -846.154     -91.381
  O      241.393    -845.399     -92.199
  H      239.532    -846.167     -91.851
  H      240.441    -845.697     -90.398
  H      240.879    -847.183     -91.292
  P      242.930    -845.329     -91.750
  C      243.861    -844.899     -94.136
  O      243.678    -844.390     -92.812
  C      245.308    -844.747     -94.579
  O      245.604    -843.323     -94.754
  C      246.337    -845.315     -93.594
  O      247.427    -845.860     -94.352
  C      246.838    -844.075     -92.867
  O      248.117    -844.268     -92.265
  C      246.821    -843.070     -94.019
  N      249.939    -839.194     -93.203
  C      250.183    -840.442     -93.751
  N      251.447    -840.708     -94.139
  N      249.253    -841.356     -93.905
  C      248.020    -840.954     -93.495
  C      247.651    -839.757     -92.934
  C      248.694    -838.757     -92.752
  O      248.547    -837.648     -92.260
  N      246.313    -839.745     -92.635
  C      245.885    -840.922     -93.008
  N      246.880    -841.704     -93.543
  O      243.461    -846.797     -92.095
  O      243.167    -844.971     -90.314
  H      247.999    -844.897     -91.510
  H      243.397    -847.377     -91.310
  H      250.691    -838.534     -93.103
  H      244.857    -841.274     -92.931
  H      247.667    -843.202     -94.702
  H      246.127    -843.790     -92.083
  H      252.201    -840.035     -94.099
  H      245.942    -846.081     -92.920
  H      251.632    -841.602     -94.581
  H      245.421    -845.208     -95.573
  H      243.206    -844.337     -94.820
  H      243.566    -845.952     -94.155
  P      247.383    -847.418     -94.733
  C      248.190    -847.030     -97.174
  O      248.428    -847.671     -95.930
  O      245.960    -847.558     -95.467
  O      247.496    -848.351     -93.573
  H      245.620    -848.465     -95.355
  H      248.964    -847.293     -97.864
  H      248.183    -845.969     -97.033
  H      247.244    -847.345     -97.562

 6  7  8  9  10  11  12  13  14  15  26  29  33  34 0
 6-311+G(2d,p)
 ****
 36  38  39  40  41 0
 6-311+G(2d,p)
 ****
 1  2  3  4  5  16  17  18  19  20  21  22  23  24  25 0
 3-21G
 ****
 27  28  30  31  32  35  37  42  43  44  45  46  47 0
 3-21G
 ****
 48  49 0
 3-21G
 ****


