%nproc=1
%NoSave
%Mem=1900MB
#P OB98/GEN NMR

erre ene a

0 1
  C       45.969     175.405      35.624
  O       45.534     176.686      36.028
  H       46.271     175.451      34.574
  H       45.159     174.677      35.724
  H       46.827     175.093      36.225
  P       44.946     176.816      37.514
  C       42.741     178.073      36.958
  O       44.036     178.135      37.541
  C       42.056     179.430      37.092
  O       41.800     179.714      38.489
  C       42.890     180.599      36.589
  O       42.863     180.725      35.177
  C       42.207     181.762      37.287
  O       41.063     182.222      36.553
  C       41.793     181.148      38.637
  N       42.664     181.592      39.723
  C       42.125     182.556      40.571
  O       40.993     183.017      40.439
  N       42.952     183.005      41.563
  C       44.249     182.632      41.753
  O       44.953     183.116      42.631
  C       44.770     181.624      40.816
  C       43.967     181.160      39.855
  O       46.229     177.221      38.380
  O       44.282     175.586      38.039
  H       46.520     176.459      38.914
  H       41.392     182.458      35.663
  H       42.579     183.702      42.191
  H       45.798     181.307      40.937
  H       44.332     180.425      39.144
  H       40.763     181.433      38.888
  H       42.884     182.606      37.391
  H       43.920     180.517      36.959
  H       41.093     179.388      36.567
  H       42.139     177.320      37.476
  H       42.837     177.784      35.907
  P       44.250     180.562      34.386
  C       43.320     182.438      32.793
  O       44.004     181.204      32.938
  O       44.261     178.982      34.135
  O       45.421     181.092      35.140
  H       43.359     178.615      34.102
  H       43.260     182.693      31.755
  H       43.851     183.204      33.318
  H       42.333     182.348      33.196

 6  7  8  9  10  11  12  13  14  15  16  27  31  32  33  34  35 0
 6-311+G(2d,p)
 ****
 36  37 0
 6-311+G(2d,p)
 ****
 1  2  3  4  5  17  18  19  20  21  22  23  24  25 0
 3-21G
 ****
 26  28  29  30  38  39  40  41  42  43  44  45 0
 3-21G
 ****


