%nproc=1
%NoSave
%Mem=1900MB
#P OB98/GEN NMR

erre ene a

0 1
  C      147.813    -202.175       8.324
  O      147.698    -202.871       9.566
  P      146.251    -203.320      10.084
  C      145.759    -201.506      11.860
  O      145.439    -202.031      10.578
  C      144.658    -200.547      12.324
  O      144.398    -199.524      11.332
  C      143.316    -201.238      12.531
  O      143.218    -202.129      13.621
  C      142.343    -200.070      12.491
  O      142.259    -199.414      13.757
  C      143.006    -199.145      11.444
  N      142.339    -199.191      10.143
  C      141.135    -198.497      10.055
  O      140.619    -197.911      11.001
  N      140.519    -198.533       8.828
  C      140.962    -199.208       7.727
  O      140.357    -199.224       6.662
  C      142.227    -199.943       7.896
  C      142.848    -199.901       9.075
  O      146.233    -204.483      11.022
  O      145.494    -203.702       8.717
  H      141.896    -200.062      14.396
  H      144.969    -204.511       8.885
  H      139.649    -198.031       8.742
  H      142.605    -200.490       7.041
  H      143.781    -200.435       9.220
  H      142.994    -198.105      11.790
  H      141.332    -200.394      12.231
  H      143.111    -201.847      11.637
  H      144.993    -200.047      13.235
  H      146.719    -200.993      11.823
  H      145.881    -202.338      12.565
  P      142.970    -203.702      13.456
  C      140.379    -203.738      13.573
  O      141.532    -203.918      12.779
  O      143.321    -204.577      14.613
  O      143.959    -204.048      12.235
  H      144.302    -204.953      12.363
  H      139.499    -203.944      12.955
  H      140.325    -202.707      13.933
  H      140.385    -204.430      14.418
  H      148.842    -201.953       8.133
  H      147.255    -201.263       8.373
  H      147.428    -202.787       7.535

 3  4  5  6  7  8  9  10  11  12  13  23  28  29  30  31  32 0
 6-311+G(2d,p)
 ****
 33  34 0
 6-311+G(2d,p)
 ****
 1  2  14  15  16  17  18  19  20  21  22  24  25  26  27 0
 3-21G
 ****
 35  36  37  38  39  40  41  42  43  44  45 0
 3-21G
 ****


