%nproc=1
%NoSave
%Mem=1900MB
#P OB98/GEN NMR

erre ene a

0 1
  C     -366.612      70.744     254.350
  O     -367.574      69.723     254.494
  H     -366.409      71.174     255.335
  H     -367.006      71.530     253.698
  H     -365.676      70.359     253.937
  P     -367.721      68.636     253.330
  C     -369.940      69.612     252.437
  O     -368.584      69.290     252.142
  C     -370.639      70.258     251.240
  O     -369.955      71.478     250.879
  C     -370.629      69.361     250.000
  O     -371.706      68.445     249.929
  C     -370.707      70.385     248.870
  O     -372.070      70.708     248.550
  C     -369.988      71.608     249.450
  N     -366.742      74.434     246.687
  C     -368.112      74.563     246.813
  N     -368.684      75.547     246.085
  N     -368.844      73.790     247.574
  C     -368.144      72.791     248.164
  C     -366.789      72.550     248.094
  C     -365.980      73.459     247.313
  O     -364.762      73.396     247.179
  N     -366.441      71.420     248.794
  C     -367.596      70.933     249.209
  N     -368.646      71.774     248.918
  O     -368.742      67.564     253.947
  O     -366.450      67.968     252.905
  H     -372.061      71.361     247.821
  H     -368.538      66.679     253.596
  H     -366.233      75.078     246.112
  H     -367.721      70.009     249.758
  H     -370.533      72.534     249.227
  H     -370.254      69.992     247.957
  H     -368.185      76.114     245.419
  H     -369.677      68.830     249.912
  H     -369.703      75.555     246.002
  H     -371.661      70.536     251.526
  H     -369.917      70.308     253.277
  H     -370.481      68.720     252.762
  P     -371.481      66.947     249.417
  C     -372.004      67.743     246.972
  O     -371.199      66.989     247.848
  O     -372.941      66.307     249.513
  O     -370.470      66.156     250.179
  H     -373.036      65.782     250.330
  H     -371.643      67.632     245.971
  H     -371.967      68.775     247.252
  H     -373.014      67.395     247.027

 6  7  8  9  10  11  12  13  14  15  26  29  33  34 0
 6-311+G(2d,p)
 ****
 36  38  39  40  41 0
 6-311+G(2d,p)
 ****
 1  2  3  4  5  16  17  18  19  20  21  22  23  24  25 0
 3-21G
 ****
 27  28  30  31  32  35  37  42  43  44  45  46  47 0
 3-21G
 ****
 48  49 0
 3-21G
 ****


