%nproc=1
%NoSave
%Mem=1900MB
#P OB98/GEN NMR

erre ene a

0 1
  C     -892.670     671.652     343.786
  O     -893.990     671.195     343.525
  H     -892.480     672.522     343.143
  H     -891.950     670.868     343.539
  H     -892.570     671.952     344.829
  P     -894.540     670.028     344.480
  C     -894.600     668.312     342.490
  O     -895.300     669.000     343.514
  C     -895.530     667.343     341.763
  O     -895.790     666.199     342.602
  C     -896.900     667.956     341.385
  O     -897.310     667.407     340.128
  C     -897.820     667.463     342.489
  O     -899.180     667.445     342.080
  C     -897.200     666.062     342.768
  N     -897.570     665.540     344.081
  C     -898.670     664.675     344.151
  O     -899.300     664.388     343.129
  N     -899.060     664.194     345.380
  C     -898.450     664.598     346.459
  N     -898.890     664.091     347.632
  C     -897.320     665.543     346.424
  C     -896.930     665.959     345.232
  O     -895.720     670.774     345.263
  O     -893.510     669.413     345.373
  H     -899.380     668.275     341.618
  H     -896.290     671.317     344.684
  H     -896.840     665.851     347.350
  H     -896.090     666.638     345.121
  H     -897.560     665.327     342.015
  H     -897.730     668.078     343.381
  H     -896.870     669.045     341.325
  H     -895.010     666.968     340.872
  H     -899.700     663.471     347.615
  H     -893.750     667.758     342.915
  H     -898.540     664.374     348.534
  H     -894.210     669.065     341.803
  P     -896.810     668.114     338.786
  C     -899.280     668.662     338.188
  O     -898.020     668.129     337.720
  O     -895.500     667.612     338.225
  O     -896.670     669.640     339.174
  H     -895.870     670.002     338.776
  H     -900.000     668.620     337.398
  H     -899.145     669.678     338.494
  H     -899.626     668.082     339.018

 6  7  8  9  10  11  12  13  14  15  16  26  30  31  32  33  35 0
 6-311+G(2d,p)
 ****
 37  38 0
 6-311+G(2d,p)
 ****
 1  2  3  4  5  17  18  19  20  21  22  23  24  25 0
 3-21G
 ****
 27  28  29  34  36  39  40  41  42  43  44  45  46 0
 3-21G
 ****


