%nproc=1
%NoSave
%Mem=1900MB
#P OB98/GEN NMR

erre ene a

0 1
  C      127.902     380.518     496.511
  O      128.330     380.823     495.175
  P      129.494     380.005     494.442
  C      131.611     381.465     494.655
  O      130.896     380.345     495.161
  C      133.096     381.405     495.019
  O      133.297     381.682     496.426
  C      133.752     380.044     494.769
  O      134.047     379.881     493.396
  C      134.969     380.124     495.682
  O      136.024     380.873     495.059
  C      134.407     380.898     496.893
  N      135.983     377.435     500.308
  C      136.652     378.154     499.376
  N      136.159     379.050     498.490
  C      134.832     379.202     498.670
  C      134.020     378.548     499.575
  C      134.652     377.619     500.430
  N      133.974     376.877     501.372
  N      132.710     378.942     499.449
  C      132.736     379.841     498.478
  N      133.993     380.033     497.982
  O      129.527     380.169     492.962
  O      129.235     378.477     494.843
  H      136.807     380.816     495.638
  H      129.578     377.893     494.139
  H      137.725     377.977     499.323
  H      131.864     380.379     498.115
  H      135.140     381.606     497.295
  H      135.374     379.137     495.941
  H      133.087     379.243     495.109
  H      133.618     382.179     494.450
  H      131.171     382.377     495.078
  H      134.489     376.212     501.921
  H      132.966     376.971     501.434
  H      131.495     381.492     493.567
  P      133.296     378.757     492.539
  C      134.439     376.736     493.627
  O      133.227     377.435     493.452
  O      133.813     378.544     491.153
  O      131.769     379.248     492.525
  H      131.340     378.945     491.700
  H      134.641     376.118     492.744
  H      134.354     376.088     494.498
  H      135.275     377.421     493.786
  H      127.118     381.188     496.796
  H      128.727     380.628     497.184
  H      127.542     379.511     496.549

 3  4  5  6  7  8  9  10  11  12  22  25  29  30  31  32 0
 6-311+G(2d,p)
 ****
 33  36  37 0
 6-311+G(2d,p)
 ****
 1  2  13  14  15  16  17  18  19  20  21  23  24  26 0
 3-21G
 ****
 27  28  34  35  38  39  40  41  42  43  44  45  46  47  48 0
 3-21G
 ****


