%nproc=1
%NoSave
%Mem=1900MB
#P OB98/GEN NMR

erre ene a

0 1
  C     1053.799     454.867    -525.167
  O     1054.321     456.030    -525.779
  H     1053.150     455.167    -524.343
  H     1054.617     454.262    -524.765
  H     1053.224     454.287    -525.890
  P     1055.281     455.806    -527.044
  C     1054.150     457.062    -529.034
  O     1055.104     457.101    -527.976
  C     1052.798     457.598    -528.552
  O     1052.989     458.946    -528.026
  C     1051.733     457.690    -529.668
  O     1050.440     457.495    -529.075
  C     1051.885     459.137    -530.104
  O     1050.753     459.538    -530.852
  C     1052.073     459.799    -528.739
  N     1051.018     464.591    -530.163
  C     1050.258     463.466    -530.091
  N     1050.612     462.239    -529.695
  C     1051.897     462.211    -529.310
  C     1052.799     463.266    -529.311
  C     1052.312     464.498    -529.766
  N     1053.095     465.639    -529.854
  N     1054.034     462.849    -528.865
  C     1053.884     461.563    -528.585
  N     1052.600     461.137    -528.837
  O     1054.542     454.645    -527.859
  O     1056.700     455.454    -526.726
  H     1050.798     460.488    -531.070
  H     1054.890     453.776    -527.598
  H     1049.219     463.598    -530.412
  H     1054.655     460.895    -528.219
  H     1051.141     459.853    -528.168
  H     1052.760     459.271    -530.738
  H     1051.888     456.969    -530.462
  H     1052.447     456.976    -527.706
  H     1054.043     456.023    -529.371
  H     1054.516     457.682    -529.859
  H     1052.679     466.475    -530.213
  H     1054.079     465.577    -529.605
  P     1049.629     456.149    -529.398
  C     1048.087     456.386    -527.300
  O     1048.179     456.189    -528.705
  O     1050.402     455.068    -528.503
  O     1049.640     455.726    -530.842
  H     1050.572     454.272    -529.024
  H     1047.058     456.386    -527.006
  H     1048.532     457.324    -527.042
  H     1048.602     455.596    -526.795

 6  7  8  9  10  11  12  13  14  15  25  28  32  33  34  35 0
 6-311+G(2d,p)
 ****
 36  37  40 0
 6-311+G(2d,p)
 ****
 1  2  3  4  5  16  17  18  19  20  21  22  23  24 0
 3-21G
 ****
 26  27  29  30  31  38  39 41  42  43  44  45  46  47  48 0
 3-21G
 ****


