%nproc=1
%NoSave
%Mem=1900MB
#P OB98/GEN NMR

erre ene a

0 1
  C      709.684      10.985     235.860
  O      709.269      12.205     236.457
  P      707.693      12.442     236.659
  C      707.736      14.216     234.764
  O      707.399      13.918     236.118
  C      707.808      15.724     234.544
  O      706.531      16.334     234.846
  C      708.823      16.442     235.435
  O      710.142      16.352     234.913
  C      708.314      17.877     235.351
  O      708.739      18.470     234.111
  C      706.798      17.668     235.353
  N      704.740      20.969     238.680
  C      705.307      21.147     237.467
  N      705.846      20.223     236.647
  C      705.781      19.002     237.214
  C      705.263      18.668     238.452
  C      704.710      19.712     239.199
  N      704.104      19.528     240.428
  N      705.381      17.318     238.680
  C      705.948      16.831     237.594
  N      706.205      17.809     236.670
  O      707.561      12.590     238.253
  O      706.817      11.351     236.128
  H      708.226      18.035     233.400
  H      706.654      12.376     238.535
  H      705.333      22.174     237.105
  H      706.185      15.789     237.426
  H      706.283      18.374     234.686
  H      708.695      18.504     236.153
  H      708.763      16.086     236.468
  H      708.028      15.903     233.491
  H      706.961      13.799     234.109
  H      703.568      20.289     240.812
  H      703.903      18.572     240.718
  H      708.692      13.743     234.533
  P      711.211      15.553     235.809
  C      713.380      16.955     236.184
  O      712.645      16.096     235.327
  O      711.145      14.074     235.207
  O      710.946      15.602     237.268
  H      711.431      13.423     235.887
  H      714.426      16.963     235.853
  H      713.346      16.597     237.221
  H      712.976      17.975     236.134
  H      710.752      10.967     235.790
  H      709.261      10.905     234.880
  H      709.352      10.163     236.460

 3  4  5  6  7  8  9  10  11  12  22  25  29  30  31  32 0
 6-311+G(2d,p)
 ****
 33  36  37 0
 6-311+G(2d,p)
 ****
 1  2  13  14  15  16  17  18  19  20  21  23  24  26 0
 3-21G
 ****
 27  28  34  35  38  39  40  41  42  43  44  45  46  47  48 0
 3-21G
 ****


