%nproc=1
%NoSave
%Mem=1900MB
#P OB98/GEN NMR

erre ene a

0 1
  C      -29.506     -56.726     341.064
  O      -28.105     -56.602     341.196
  H      -29.923     -55.749     340.808
  H      -29.933     -57.049     342.016
  H      -29.765     -57.439     340.277
  P      -27.244     -57.955     341.176
  C      -25.968     -57.495     338.963
  O      -26.940     -58.284     339.632
  C      -24.591     -58.156     339.050
  O      -24.668     -59.472     338.422
  C      -23.470     -57.369     338.351
  O      -22.264     -57.509     339.112
  C      -23.297     -58.121     337.044
  O      -22.008     -57.926     336.474
  C      -23.562     -59.551     337.503
  N      -21.422     -62.728     334.261
  C      -20.923     -62.145     335.408
  N      -19.632     -62.395     335.712
  N      -21.630     -61.374     336.192
  C      -22.913     -61.221     335.781
  C      -23.526     -61.737     334.666
  C      -22.727     -62.577     333.796
  O      -23.105     -63.103     332.756
  N      -24.822     -61.296     334.570
  C      -24.982     -60.499     335.613
  N      -23.851     -60.420     336.376
  O      -28.323     -59.062     341.591
  O      -26.056     -57.970     342.078
  H      -21.968     -58.423     335.631
  H      -28.277     -59.225     342.552
  H      -20.831     -63.299     333.682
  H      -25.881     -59.947     335.845
  H      -22.706     -59.989     338.032
  H      -24.051     -57.792     336.319
  H      -19.034     -63.002     335.176
  H      -23.695     -56.307     338.208
  H      -19.263     -62.006     336.573
  H      -24.348     -58.320     340.106
  H      -25.918     -56.508     339.434
  H      -26.264     -57.369     337.916
  P      -21.435     -56.182     339.462
  C      -22.663     -55.561     341.672
  O      -22.371     -55.208     340.327
  O      -21.335     -55.435     338.050
  O      -20.084     -56.447     340.039
  H      -20.483     -54.967     337.984
  H      -23.294     -54.815     342.108
  H      -21.752     -55.628     342.229
  H      -23.163     -56.507     341.692

 6  7  8  9  10  11  12  13  14  15  26  29  33  34 0
 6-311+G(2d,p)
 ****
 36  38  39  40  41 0
 6-311+G(2d,p)
 ****
 1  2  3  4  5  16  17  18  19  20  21  22  23  24  25 0
 3-21G
 ****
 27  28  30  31  32  35  37  42  43  44  45  46  47 0
 3-21G
 ****
 48  49 0
 3-21G
 ****


