%nproc=1
%NoSave
%Mem=1900MB
#P OB98/GEN NMR

erre ene a

0 1
  C     1529.230    2146.441    -863.960
  O     1530.025    2145.371    -864.403
  P     1531.234    2145.708    -865.392
  C     1531.792    2143.124    -865.290
  O     1531.588    2144.266    -866.076
  C     1532.401    2142.004    -866.100
  O     1533.513    2142.559    -866.894
  C     1532.952    2140.875    -865.300
  O     1531.971    2139.963    -864.845
  C     1533.966    2140.230    -866.265
  O     1533.291    2139.272    -867.151
  C     1534.401    2141.444    -867.111
  N     1535.805    2141.859    -866.836
  C     1536.790    2141.063    -867.433
  O     1536.482    2140.123    -868.189
  N     1538.078    2141.342    -867.219
  C     1538.403    2142.321    -866.401
  N     1539.716    2142.578    -866.193
  C     1537.376    2143.135    -865.707
  C     1536.122    2142.829    -865.979
  O     1532.484    2145.902    -864.352
  O     1531.044    2146.854    -866.314
  H     1533.945    2139.029    -867.816
  H     1533.152    2146.485    -864.730
  H     1537.688    2143.962    -865.034
  H     1535.323    2143.379    -865.530
  H     1534.338    2141.212    -868.183
  H     1534.766    2139.686    -865.786
  H     1533.558    2141.265    -864.412
  H     1531.688    2141.644    -866.842
  H     1540.409    2141.978    -866.681
  H     1530.767    2142.740    -864.993
  H     1540.082    2143.343    -865.596
  H     1532.374    2143.337    -864.406
  P     1531.941    2139.543    -863.295
  C     1529.495    2140.146    -863.210
  O     1530.421    2139.169    -862.997
  O     1532.118    2140.919    -862.504
  O     1532.990    2138.530    -862.844
  H     1532.242    2140.815    -861.564
  H     1528.465    2139.791    -863.174
  H     1529.608    2140.603    -864.236
  H     1529.532    2140.980    -862.485
  H     1528.465    2146.072    -863.309
  H     1528.779    2146.923    -864.802
  H     1529.840    2147.143    -863.431

 3  4  5  6  7  8  9  10  11  12  13  21  23  27  28  29  30  32 0
 6-311+G(2d,p)
 ****
 34  35 0
 6-311+G(2d,p)
 ****
 1  2  14  15  16  17  18  19  20  22  24  25  26 0
 3-21G
 ****
 31  33  36  37  38  39  40  41  42  43  44  45  46 0
 3-21G
 ****


