%nproc=1
%NoSave
%Mem=1900MB
#P OB98/GEN NMR

erre ene a

0 1
  C      179.518    -142.963     191.149
  O      179.751    -142.586     189.781
  P      179.129    -143.370     188.530
  C      178.460    -142.753     186.108
  O      179.273    -142.437     187.234
  C      178.639    -141.708     184.995
  O      178.263    -140.395     185.482
  C      180.070    -141.526     184.495
  O      180.495    -142.603     183.683
  C      179.950    -140.193     183.762
  O      179.466    -140.365     182.426
  C      178.905    -139.434     184.604
  N      179.474    -138.333     185.362
  C      179.620    -137.117     184.682
  O      179.355    -137.040     183.485
  N      180.079    -136.026     185.387
  C      180.463    -136.166     186.618
  N      180.891    -135.049     187.265
  C      180.445    -137.460     187.331
  C      179.941    -138.488     186.649
  O      177.738    -143.875     188.754
  O      180.138    -144.581     188.241
  H      179.659    -145.311     187.814
  H      179.299    -139.468     182.064
  H      180.805    -137.537     188.342
  H      179.879    -139.469     187.101
  H      178.104    -139.057     183.957
  H      180.917    -139.677     183.692
  H      180.738    -141.414     185.354
  H      177.973    -141.976     184.164
  H      180.876    -134.173     186.751
  H      177.412    -142.758     186.425
  H      181.186    -135.043     188.229
  H      178.723    -143.756     185.744
  P      181.757    -143.443     184.197
  C      181.870    -145.999     184.653
  O      181.556    -144.963     183.740
  O      181.560    -143.493     185.789
  O      183.082    -142.855     183.839
  H      182.421    -143.397     186.233
  H      181.261    -146.872     184.415
  H      181.684    -145.699     185.688
  H      182.927    -146.265     184.538
  H      180.038    -142.290     191.798
  H      179.873    -143.959     191.310
  H      178.469    -142.921     191.357

 3  4  5  6  7  8  9  10  11  12  13  24  27  28  29  30  32 0
 6-311+G(2d,p)
 ****
 34  35 0
 6-311+G(2d,p)
 ****
 1  2  14  15  16  17  18  19  20  21  22  23  25  26 0
 3-21G
 ****
 31  33  36  37  38  39  40  41  42  43  44  45  46 0
 3-21G
 ****


