%nproc=1
%NoSave
%Mem=1900MB
#P OB98/GEN NMR

erre ene a

0 1
  C       24.817      25.948    -130.388
  O       24.239      25.795    -131.668
  H       24.750      24.994    -129.858
  H       24.272      26.702    -129.817
  H       25.871      26.230    -130.466
  P       24.386      26.985    -132.729
  C       21.947      27.786    -132.475
  O       22.930      27.239    -133.348
  C       20.720      28.212    -133.276
  O       21.112      29.080    -134.361
  C       19.965      27.054    -133.920
  O       19.197      26.354    -132.958
  C       19.155      27.795    -134.974
  O       17.992      28.405    -134.388
  C       20.166      28.872    -135.436
  N       20.852      28.520    -136.678
  C       20.665      29.378    -137.755
  O       19.931      30.365    -137.708
  N       21.334      29.048    -138.908
  C       22.091      27.928    -139.100
  O       22.629      27.654    -140.169
  C       22.229      27.042    -137.935
  C       21.616      27.372    -136.796
  O       25.476      26.828    -133.738
  O       24.616      28.278    -131.813
  H       18.312      28.961    -133.653
  H       25.565      28.505    -131.793
  H       21.201      29.650    -139.704
  H       22.815      26.140    -138.055
  H       21.698      26.726    -135.929
  H       19.653      29.833    -135.590
  H       18.801      27.142    -135.771
  H       20.666      26.381    -134.427
  H       20.060      28.784    -132.609
  H       22.374      28.659    -131.968
  H       21.680      27.033    -131.725
  P       18.661      24.879    -133.261
  C       16.241      25.561    -133.759
  O       17.098      24.844    -132.879
  O       19.469      23.773    -132.668
  O       18.643      24.789    -134.858
  H       19.382      24.229    -135.165
  H       15.230      25.476    -133.420
  H       16.322      25.154    -134.745
  H       16.527      26.592    -133.774

 6  7  8  9  10  11  12  13  14  15  16  26  31  32  33  34  35 0
 6-311+G(2d,p)
 ****
 36  37 0
 6-311+G(2d,p)
 ****
 1  2  3  4  5  17  18  19  20  21  22  23  24  25 0
 3-21G
 ****
 27  28  29  30  38  39  40  41  42  43  44  45 0
 3-21G
 ****


