%nproc=1
%NoSave
%Mem=1900MB
#P OB98/GEN NMR

erre ene a

0 1
  C     -896.630     855.815    -897.550
  O     -897.220     856.806    -896.740
  H     -897.410     855.122    -897.880
  H     -895.880     855.248    -896.970
  H     -896.160     856.259    -898.430
  P     -896.240     857.927    -896.150
  C     -897.810     859.910    -896.690
  O     -896.570     859.300    -896.930
  C     -897.730     861.433    -896.890
  O     -897.020     862.005    -895.740
  C     -896.950     861.831    -898.160
  O     -897.580     862.993    -898.730
  C     -895.570     862.240    -897.620
  O     -894.900     863.115    -898.510
  C     -895.990     862.862    -896.290
  N     -892.080     865.737    -894.860
  C     -893.060     865.974    -895.800
  N     -893.050     867.173    -896.460
  N     -894.030     865.120    -896.050
  C     -893.960     864.002    -895.300
  C     -893.050     863.630    -894.370
  C     -891.970     864.584    -894.100
  O     -891.020     864.438    -893.280
  N     -893.300     862.410    -893.820
  C     -894.390     861.982    -894.450
  N     -894.830     862.930    -895.360
  O     -894.800     857.508    -896.720
  O     -896.240     858.055    -894.640
  H     -894.570     862.553    -899.260
  H     -894.080     857.773    -896.100
  H     -891.360     866.422    -894.720
  H     -894.910     861.034    -894.310
  H     -896.370     863.887    -896.390
  H     -894.950     861.321    -897.470
  H     -892.360     867.872    -896.300
  H     -896.890     861.041    -898.910
  H     -893.780     867.337    -897.140
  H     -898.720     861.876    -896.900
  H     -898.110     859.696    -895.640
  H     -898.580     859.507    -897.370
  P     -899.180     863.068    -898.700
  C     -899.320     865.304    -897.360
  O     -899.620     863.908    -897.420
  O     -899.600     861.562    -898.350
  O     -899.800     863.499    -900.000
  H     -900.000     861.140    -899.130
  H     -899.684     865.708    -896.438
  H     -899.790     865.805    -898.180
  H     -898.261     865.444    -897.417

 6  7  8  9  10  11  12  13  14  15  26  29  33  34 0
 6-311+G(2d,p)
 ****
 36  38  39  40  41 0
 6-311+G(2d,p)
 ****
 1  2  3  4  5  16  17  18  19  20  21  22  23  24  25 0
 3-21G
 ****
 27  28  30  31  32  35  37  42  43  44  45  46  47 0
 3-21G
 ****
 48  49 0
 3-21G
 ****


