%nproc=1
%NoSave
%Mem=1900MB
#P OB98/GEN NMR

erre ene a

0 1
  C       23.888    -231.411    -248.064
  O       22.844    -232.310    -248.449
  P       22.666    -233.651    -247.583
  C       24.046    -235.489    -248.827
  O       22.791    -234.867    -248.624
  C       24.084    -236.217    -250.176
  O       23.555    -237.568    -250.019
  C       23.285    -235.530    -251.290
  O       24.023    -235.713    -252.506
  C       21.996    -236.330    -251.329
  O       21.328    -236.204    -252.577
  C       22.526    -237.733    -251.017
  N       21.477    -238.643    -250.561
  C       20.490    -238.977    -251.479
  O       20.427    -238.480    -252.603
  N       19.545    -239.867    -251.048
  C       19.452    -240.384    -249.786
  O       18.582    -241.178    -249.450
  C       20.458    -239.908    -248.826
  C       21.408    -239.071    -249.252
  O       21.111    -233.591    -247.224
  O       23.587    -233.713    -246.410
  H       20.560    -233.233    -247.941
  H       20.519    -236.754    -252.564
  H       18.837    -240.147    -251.707
  H       20.380    -240.249    -247.801
  H       22.150    -238.685    -248.565
  H       22.999    -238.169    -251.904
  H       21.319    -235.987    -250.538
  H       23.131    -234.461    -251.107
  H       25.133    -236.313    -250.478
  H       24.235    -236.214    -248.029
  H       24.838    -234.732    -248.763
  P       24.753    -234.433    -253.154
  C       24.125    -235.046    -255.620
  O       25.132    -234.821    -254.661
  O       26.165    -234.504    -252.397
  O       24.051    -233.132    -252.947
  H       26.553    -235.396    -252.396
  H       24.583    -235.059    -256.614
  H       23.373    -234.253    -255.597
  H       23.650    -236.014    -255.440
  H       23.892    -230.567    -248.722
  H       24.831    -231.913    -248.122
  H       23.722    -231.080    -247.060

 3  4  5  6  7  8  9  10  11  12  13  24  28  29  30  31  32 0
 6-311+G(2d,p)
 ****
 33  34 0
 6-311+G(2d,p)
 ****
 1  2  14  15  16  17  18  19  20  21  22  23  25  26  27 0
 3-21G
 ****
 35  36  37  38  39  40  41  42  43  44  45 0
 3-21G
 ****


