%nproc=1
%NoSave
%Mem=1900MB
#P OB98/GEN NMR

erre ene a

0 1
  C     -197.353      12.183    -268.992
  O     -198.088      12.877    -270.002
  P     -198.376      14.435    -269.742
  C     -198.764      15.167    -272.199
  O     -199.334      14.981    -270.911
  C     -198.731      13.862    -273.004
  O     -200.075      13.377    -273.263
  C     -198.028      13.997    -274.356
  O     -197.375      12.754    -274.626
  C     -199.183      14.159    -275.326
  O     -198.792      13.828    -276.656
  C     -200.223      13.221    -274.690
  N     -201.590      13.496    -275.127
  C     -202.026      12.859    -276.290
  O     -201.248      12.155    -276.940
  N     -203.315      13.061    -276.714
  C     -204.085      13.875    -276.062
  N     -205.350      14.037    -276.535
  C     -203.649      14.617    -274.864
  C     -202.404      14.377    -274.457
  O     -196.966      15.129    -270.049
  O     -198.840      14.734    -268.353
  H     -198.458      12.904    -276.655
  H     -196.723      15.727    -269.319
  H     -204.320      15.300    -274.365
  H     -201.994      14.870    -273.587
  H     -199.996      12.175    -274.936
  H     -199.544      15.194    -275.315
  H     -197.302      14.812    -274.392
  H     -198.222      13.104    -272.398
  H     -205.615      13.503    -277.355
  H     -197.746      15.552    -272.103
  H     -206.034      14.645    -276.108
  H     -199.331      15.941    -272.728
  P     -195.866      12.789    -275.165
  C     -194.686      10.932    -273.840
  O     -195.352      11.273    -275.040
  O     -195.102      13.484    -273.935
  O     -195.584      13.494    -276.446
  H     -194.170      13.631    -274.169
  H     -194.504       9.855    -273.837
  H     -195.304      11.189    -272.973
  H     -193.724      11.451    -273.785
  H     -197.228      11.160    -269.281
  H     -197.888      12.229    -268.066
  H     -196.393      12.640    -268.872

 3  4  5  6  7  8  9  10  11  12  13  21  23  27  28  29  30  32 0
 6-311+G(2d,p)
 ****
 34  35 0
 6-311+G(2d,p)
 ****
 1  2  14  15  16  17  18  19  20  22  24  25  26 0
 3-21G
 ****
 31  33  36  37  38  39  40  41  42  43  44  45  46 0
 3-21G
 ****


