%nproc=1
%NoSave
%Mem=1900MB
#P OB98/GEN NMR

erre ene a

0 1
  C       66.619      26.575      61.531
  O       67.776      27.219      61.005
  P       67.764      28.814      60.858
  C       66.618      28.684      58.476
  O       67.615      29.215      59.321
  C       66.405      29.631      57.285
  O       65.673      30.803      57.701
  C       67.709      30.118      56.660
  O       68.201      29.216      55.685
  C       67.303      31.462      56.091
  O       66.580      31.286      54.859
  C       66.359      31.986      57.200
  N       66.961      32.703      58.344
  C       67.722      33.848      58.121
  O       67.946      34.324      57.011
  N       68.228      34.461      59.237
  C       67.920      34.162      60.531
  O       68.357      34.784      61.490
  C       66.994      33.039      60.711
  C       66.576      32.368      59.635
  O       69.260      29.239      61.221
  O       66.759      29.506      61.725
  H       66.360      32.173      54.525
  H       69.273      29.777      62.035
  H       68.840      35.249      59.090
  H       66.684      32.796      61.719
  H       65.889      31.534      59.758
  H       65.599      32.651      56.776
  H       68.172      32.068      55.849
  H       68.458      30.295      57.438
  H       65.804      29.108      56.530
  H       65.679      28.550      59.018
  H       66.925      27.694      58.123
  P       69.106      27.973      56.132
  C       71.226      29.212      55.394
  O       70.429      28.055      55.228
  O       68.426      26.646      56.164
  O       69.648      28.405      57.579
  H       69.086      28.020      58.290
  H       72.164      29.073      54.849
  H       71.450      29.376      56.451
  H       70.706      30.083      54.985
  H       66.784      25.518      61.565
  H       65.778      26.785      60.904
  H       66.427      26.938      62.519

 3  4  5  6  7  8  9  10  11  12  13  23  28  29  30  31  32 0
 6-311+G(2d,p)
 ****
 33  34 0
 6-311+G(2d,p)
 ****
 1  2  14  15  16  17  18  19  20  21  22  24  25  26  27 0
 3-21G
 ****
 35  36  37  38  39  40  41  42  43  44  45 0
 3-21G
 ****


