%nproc=1
%NoSave
%Mem=1900MB
#P OB98/GEN NMR

erre ene a

0 1
  C     -467.577    -786.815    -493.199
  O     -467.691    -785.408    -493.259
  H     -466.534    -787.088    -493.350
  H     -468.173    -787.272    -493.990
  H     -467.899    -787.187    -492.226
  P     -469.141    -784.746    -493.066
  C     -468.225    -783.143    -491.250
  O     -469.126    -784.194    -491.560
  C     -467.767    -783.240    -489.803
  O     -466.830    -784.322    -489.617
  C     -467.037    -782.013    -489.266
  O     -467.890    -780.900    -489.017
  C     -466.444    -782.584    -487.999
  O     -467.468    -782.707    -486.999
  C     -465.975    -783.978    -488.491
  N     -464.568    -783.982    -488.898
  C     -463.626    -784.166    -487.869
  O     -463.988    -784.286    -486.708
  N     -462.287    -784.160    -488.193
  C     -461.915    -783.959    -489.434
  N     -460.587    -783.967    -489.696
  C     -462.884    -783.751    -490.536
  C     -464.169    -783.773    -490.199
  O     -470.310    -785.610    -493.420
  O     -469.074    -783.387    -493.914
  H     -468.139    -783.320    -487.348
  H     -469.958    -782.938    -493.837
  H     -462.522    -783.567    -491.539
  H     -464.932    -783.627    -490.956
  H     -466.130    -784.739    -487.721
  H     -465.648    -781.969    -487.579
  H     -466.216    -781.726    -489.945
  H     -468.657    -783.471    -489.198
  H     -459.952    -784.103    -488.908
  H     -468.737    -782.186    -491.437
  H     -460.204    -783.739    -490.608
  H     -467.346    -783.197    -491.900
  P     -467.890    -779.715    -490.112
  C     -470.351    -779.114    -490.734
  O     -469.213    -779.923    -490.991
  O     -466.709    -780.127    -491.099
  O     -467.735    -778.339    -489.549
  H     -465.885    -779.630    -490.866
  H     -471.139    -779.383    -491.406
  H     -470.096    -778.085    -490.877
  H     -470.675    -779.265    -489.726

 6  7  8  9  10  11  12  13  14  15  16  26  30  31  32  33  35 0
 6-311+G(2d,p)
 ****
 37  38 0
 6-311+G(2d,p)
 ****
 1  2  3  4  5  17  18  19  20  21  22  23  24  25 0
 3-21G
 ****
 27  28  29  34  36  39  40  41  42  43  44  45  46 0
 3-21G
 ****


