%nproc=1
%NoSave
%Mem=1900MB
#P OB98/GEN NMR

erre ene a

0 1
  C      -62.229    -918.030    -275.319
  O      -62.861    -917.447    -276.437
  H      -62.105    -917.270    -274.546
  H      -61.239    -918.394    -275.612
  H      -62.822    -918.854    -274.915
  P      -63.496    -918.443    -277.525
  C      -61.080    -918.958    -278.320
  O      -62.403    -918.605    -278.693
  C      -60.161    -918.934    -279.540
  O      -60.621    -919.952    -280.492
  C      -60.129    -917.586    -280.278
  O      -58.799    -917.359    -280.768
  C      -61.031    -917.839    -281.475
  O      -60.754    -916.956    -282.557
  C      -60.712    -919.303    -281.770
  N      -62.750    -919.063    -286.345
  C      -61.620    -918.463    -285.838
  N      -60.949    -917.625    -286.654
  N      -61.177    -918.677    -284.626
  C      -61.930    -919.551    -283.920
  C      -63.071    -920.205    -284.307
  C      -63.564    -919.959    -285.645
  O      -64.574    -920.435    -286.145
  N      -63.575    -920.964    -283.281
  C      -62.745    -920.755    -282.272
  N      -61.732    -919.902    -282.616
  O      -64.635    -917.543    -278.200
  O      -64.042    -919.717    -276.982
  H      -61.282    -917.240    -283.332
  H      -65.493    -917.713    -277.764
  H      -63.061    -918.856    -287.282
  H      -62.848    -921.175    -281.280
  H      -59.754    -919.423    -282.294
  H      -62.082    -917.710    -281.186
  H      -61.209    -917.439    -287.610
  H      -60.450    -916.737    -279.672
  H      -60.094    -917.205    -286.308
  H      -59.150    -919.232    -279.223
  H      -61.088    -919.966    -277.895
  H      -60.720    -918.262    -277.558
  P      -57.752    -916.638    -279.788
  C      -57.971    -914.276    -280.882
  O      -57.121    -915.377    -280.559
  O      -56.537    -917.674    -279.732
  O      -58.299    -916.352    -278.428
  H      -56.129    -917.653    -278.842
  H      -57.403    -913.524    -281.390
  H      -58.382    -913.867    -279.983
  H      -58.765    -914.612    -281.516

 6  7  8  9  10  11  12  13  14  15  26  29  33  34 0
 6-311+G(2d,p)
 ****
 36  38  39  40  41 0
 6-311+G(2d,p)
 ****
 1  2  3  4  5  16  17  18  19  20  21  22  23  24  25 0
 3-21G
 ****
 27  28  30  31  32  35  37  42  43  44  45  46  47 0
 3-21G
 ****
 48  49 0
 3-21G
 ****


