%nproc=1
%NoSave
%Mem=1900MB
#P OB98/GEN NMR

erre ene a

0 1
  C      486.203     410.694    -718.214
  O      486.528     411.968    -717.695
  P      486.672     412.273    -716.128
  C      489.252     412.538    -716.153
  O      488.146     411.813    -715.670
  C      490.045     413.243    -715.043
  O      490.440     412.280    -714.041
  C      491.349     413.825    -715.615
  O      491.349     415.083    -716.254
  C      492.366     413.676    -714.490
  O      492.538     414.878    -713.740
  C      491.770     412.586    -713.604
  N      495.483     410.008    -711.287
  C      494.770     411.109    -710.846
  N      495.249     411.699    -709.717
  N      493.727     411.580    -711.450
  C      493.422     410.941    -712.602
  C      494.033     409.842    -713.149
  C      495.180     409.287    -712.445
  O      495.885     408.372    -712.857
  N      493.520     409.511    -714.373
  C      492.603     410.433    -714.596
  N      492.536     411.352    -713.575
  O      485.500     411.930    -715.271
  O      486.814     413.879    -716.133
  H      493.306     414.759    -713.156
  H      486.385     414.223    -715.326
  H      496.338     409.725    -710.824
  H      492.000     410.504    -715.491
  H      491.691     412.929    -712.566
  H      493.356     413.418    -714.893
  H      496.138     411.445    -709.321
  H      491.687     413.138    -716.397
  H      494.857     412.604    -709.463
  H      489.425     413.972    -714.523
  H      488.887     413.258    -716.885
  H      489.934     411.856    -716.686
  P      492.320     415.553    -717.443
  C      490.473     415.782    -719.196
  O      491.673     415.110    -718.827
  O      493.588     414.575    -717.311
  O      492.746     416.986    -717.367
  H      494.371     414.987    -717.734
  H      489.960     415.218    -719.976
  H      490.716     416.785    -719.592
  H      489.797     415.888    -718.338
  H      486.166     410.743    -719.282
  H      485.249     410.388    -717.837
  H      486.948     409.987    -717.915

 3  4  5  6  7  8  9  10  11  12  23  26  30  31 0
 6-311+G(2d,p)
 ****
 33  35  36  37  38 0
 6-311+G(2d,p)
 ****
 1  2  13  14  15  16  17  18  19  20  21  22  24  25 0
 3-21G
 ****
 27  28  29  32  34  39  40  41  42  43  44  45  46  47  48  49 0
 3-21G
 ****


