%nproc=1
%NoSave
%Mem=1900MB
#P OB98/GEN NMR

erre ene a

0 1
  C     -164.267     902.830     441.440
  O     -164.268     901.436     441.181
  P     -164.603     900.448     442.408
  C     -162.313     899.260     442.051
  O     -163.718     899.127     442.175
  C     -161.623     897.914     442.259
  O     -161.627     897.554     443.651
  C     -162.298     896.745     441.552
  O     -161.943     896.666     440.177
  C     -161.727     895.567     442.315
  O     -160.406     895.267     441.826
  C     -161.668     896.115     443.759
  N     -163.837     892.263     446.206
  C     -162.578     892.354     445.670
  N     -161.800     891.246     445.745
  N     -162.109     893.444     445.106
  C     -162.998     894.469     445.100
  C     -164.279     894.501     445.612
  C     -164.781     893.285     446.226
  O     -165.915     893.110     446.676
  N     -164.869     895.726     445.423
  C     -163.945     896.428     444.805
  N     -162.819     895.706     444.547
  O     -166.094     899.952     442.098
  O     -164.494     901.075     443.770
  H     -160.022     894.608     442.441
  H     -166.498     899.572     442.906
  H     -164.154     891.396     446.639
  H     -164.083     897.465     444.515
  H     -160.758     895.792     444.265
  H     -162.325     894.651     442.192
  H     -162.126     890.365     446.109
  H     -163.385     896.774     441.683
  H     -160.887     891.279     445.296
  H     -160.576     898.017     441.946
  H     -161.943     899.992     442.793
  H     -162.079     899.660     441.046
  P     -163.127     896.870     439.115
  C     -161.824     895.183     437.632
  O     -162.520     896.405     437.700
  O     -163.229     898.460     438.975
  O     -164.432     896.257     439.514
  H     -164.122     898.728     438.693
  H     -161.696     894.909     436.561
  H     -162.367     894.377     438.145
  H     -160.821     895.281     438.077
  H     -164.030     903.360     440.541
  H     -163.536     903.053     442.189
  H     -165.234     903.129     441.786

 3  4  5  6  7  8  9  10  11  12  23  26  30  31 0
 6-311+G(2d,p)
 ****
 33  35  36  37  38 0
 6-311+G(2d,p)
 ****
 1  2  13  14  15  16  17  18  19  20  21  22  24  25 0
 3-21G
 ****
 27  28  29  32  34  39  40  41  42  43  44  45  46  47  48  49 0
 3-21G
 ****


