%nproc=1
%NoSave
%Mem=1900MB
#P OB98/GEN NMR

erre ene a

0 1
  C      417.862    -700.214    -761.542
  O      417.172    -699.356    -760.630
  P      418.008    -698.645    -759.448
  C      417.403    -696.248    -760.209
  O      417.352    -697.210    -759.160
  C      416.499    -695.042    -759.890
  O      415.125    -695.305    -760.299
  C      416.474    -694.709    -758.393
  O      416.326    -693.293    -758.199
  C      415.182    -695.372    -757.922
  O      414.710    -694.801    -756.703
  C      414.287    -695.127    -759.149
  N      409.311    -695.605    -760.346
  C      410.172    -694.569    -760.471
  N      411.496    -694.520    -760.151
  C      411.910    -695.702    -759.659
  C      411.138    -696.844    -759.479
  C      409.777    -696.770    -759.833
  N      408.894    -697.803    -759.682
  N      411.902    -697.876    -758.954
  C      413.098    -697.329    -758.771
  N      413.157    -696.043    -759.206
  O      419.495    -698.639    -759.635
  O      417.572    -699.498    -758.163
  H      415.336    -695.078    -756.014
  H      418.380    -699.647    -757.607
  H      409.755    -693.651    -760.870
  H      413.944    -697.845    -758.313
  H      413.894    -694.104    -759.157
  H      415.355    -696.443    -757.770
  H      417.351    -695.061    -757.834
  H      416.853    -694.178    -760.483
  H      417.069    -696.713    -761.146
  H      407.917    -697.637    -759.848
  H      409.191    -698.635    -759.169
  H      418.446    -695.937    -760.371
  P      417.512    -692.568    -757.368
  C      417.082    -690.293    -758.594
  O      417.146    -691.012    -757.390
  O      418.882    -692.941    -757.857
  O      417.216    -693.046    -755.866
  H      416.279    -692.915    -755.579
  H      416.694    -689.280    -758.409
  H      416.401    -690.787    -759.302
  H      418.072    -690.213    -759.058
  H      417.170    -700.603    -762.259
  H      418.308    -701.023    -761.002
  H      418.624    -699.658    -762.047

 3  4  5  6  7  8  9  10  11  12  22  25  29  30  31  32 0
 6-311+G(2d,p)
 ****
 33  36  37 0
 6-311+G(2d,p)
 ****
 1  2  13  14  15  16  17  18  19  20  21  23  24  26 0
 3-21G
 ****
 27  28  34  35  38  39  40  41  42  43  44  45  46  47  48 0
 3-21G
 ****


