%nproc=1
%NoSave
%Mem=1900MB
#P OB98/GEN NMR

erre ene a

0 1
  C     -184.609     753.632    -364.863
  O     -184.591     752.734    -365.958
  P     -183.704     751.399    -365.938
  C     -185.002     750.435    -367.956
  O     -183.737     750.830    -367.438
  C     -184.837     749.901    -369.394
  O     -184.334     750.971    -370.225
  C     -183.867     748.716    -369.527
  O     -184.384     747.855    -370.560
  C     -182.584     749.369    -369.966
  O     -181.699     748.478    -370.620
  C     -183.124     750.499    -370.872
  N     -182.153     751.579    -371.046
  C     -180.939     751.247    -371.658
  O     -180.686     750.089    -371.988
  N     -180.021     752.249    -371.870
  C     -180.273     753.456    -371.451
  N     -179.360     754.430    -371.737
  C     -181.503     753.815    -370.716
  C     -182.393     752.850    -370.578
  O     -184.082     750.407    -364.889
  O     -182.201     751.923    -365.822
  H     -180.876     748.979    -370.860
  H     -181.917     752.100    -364.892
  H     -181.641     754.830    -370.359
  H     -183.332     753.018    -370.083
  H     -183.414     750.092    -371.855
  H     -182.051     749.780    -369.096
  H     -183.780     748.147    -368.597
  H     -185.824     749.631    -369.767
  H     -178.610     754.177    -372.378
  H     -185.656     751.304    -367.972
  H     -179.620     755.408    -371.734
  H     -185.444     749.668    -367.311
  P     -184.332     746.260    -370.318
  C     -185.727     745.927    -372.494
  O     -184.592     745.546    -371.737
  O     -185.729     746.002    -369.570
  O     -183.211     745.740    -369.494
  H     -185.663     745.201    -369.013
  H     -185.736     745.358    -373.434
  H     -185.670     746.998    -372.755
  H     -186.648     745.737    -371.941
  H     -185.262     754.451    -365.084
  H     -183.620     754.001    -364.688
  H     -184.959     753.122    -363.990

 3  4  5  6  7  8  9  10  11  12  13  23  27  28  29  30  32 0
 6-311+G(2d,p)
 ****
 34  35 0
 6-311+G(2d,p)
 ****
 1  2  14  15  16  17  18  19  20  21  22  24  25  26 0
 3-21G
 ****
 31  33  36  37  38  39  40  41  42  43  44  45  46 0
 3-21G
 ****


