%nproc=1
%NoSave
%Mem=1900MB
#P OB98/GEN NMR

erre ene a

0 1
  C     -737.147    -351.361    1502.030
  O     -736.561    -352.598    1501.637
  P     -735.007    -352.857    1501.416
  C     -735.209    -353.234    1498.808
  O     -734.823    -353.728    1500.092
  C     -735.290    -354.379    1497.783
  O     -733.952    -354.857    1497.489
  C     -736.084    -355.599    1498.301
  O     -736.957    -356.165    1497.335
  C     -734.996    -356.501    1498.865
  O     -735.386    -357.852    1499.011
  C     -733.840    -356.222    1497.902
  N     -728.857    -357.071    1497.119
  C     -729.888    -357.010    1496.194
  N     -729.560    -357.209    1494.895
  N     -731.148    -356.775    1496.522
  C     -731.341    -356.694    1497.858
  C     -730.400    -356.758    1498.858
  C     -729.015    -356.952    1498.480
  O     -728.057    -357.004    1499.247
  N     -730.997    -356.601    1500.105
  C     -732.258    -356.455    1499.839
  N     -732.528    -356.491    1498.494
  O     -734.237    -353.285    1502.614
  O     -734.438    -351.406    1500.956
  H     -735.589    -358.201    1498.132
  H     -733.526    -351.355    1501.295
  H     -727.920    -357.236    1496.809
  H     -733.032    -356.302    1500.590
  H     -733.889    -356.863    1497.020
  H     -734.745    -356.117    1499.877
  H     -728.657    -357.510    1494.591
  H     -736.763    -355.303    1499.107
  H     -730.354    -357.375    1494.263
  H     -735.734    -353.982    1496.852
  H     -734.451    -352.516    1498.514
  H     -736.169    -352.696    1498.899
  P     -738.449    -355.729    1496.950
  C     -739.752    -357.823    1497.644
  O     -739.280    -357.030    1496.547
  O     -738.303    -354.959    1495.536
  O     -739.127    -354.840    1497.963
  H     -738.600    -354.035    1495.652
  H     -740.071    -358.799    1497.244
  H     -740.634    -357.343    1498.089
  H     -738.973    -357.970    1498.381
  H     -738.208    -351.476    1502.102
  H     -736.918    -350.611    1501.302
  H     -736.755    -351.067    1502.981

 3  4  5  6  7  8  9  10  11  12  23  26  30  31 0
 6-311+G(2d,p)
 ****
 33  35  36  37  38 0
 6-311+G(2d,p)
 ****
 1  2  13  14  15  16  17  18  19  20  21  22  24  25 0
 3-21G
 ****
 27  28  29  32  34  39  40  41  42  43  44  45  46  47  48  49 0
 3-21G
 ****


