%nproc=1
%NoSave
%Mem=1900MB
#P OB98/GEN NMR

erre ene a

0 1
  C       15.131     120.167    -126.335
  O       16.288     120.103    -125.527
  H       15.063     119.246    -126.921
  H       15.190     121.017    -127.021
  H       14.241     120.253    -125.707
  P       16.604     121.391    -124.624
  C       18.362     122.327    -126.260
  O       17.079     122.510    -125.676
  C       18.972     123.677    -126.641
  O       18.231     124.217    -127.767
  C       18.917     124.713    -125.513
  O       20.092     125.523    -125.565
  C       17.710     125.561    -125.881
  O       17.761     126.859    -125.299
  C       17.786     125.535    -127.406
  N       15.472     126.752    -131.775
  C       16.734     126.361    -131.498
  N       17.262     126.031    -130.301
  C       16.323     126.082    -129.338
  C       14.999     126.462    -129.467
  C       14.577     126.820    -130.760
  N       13.305     127.255    -131.047
  N       14.367     126.430    -128.240
  C       15.291     126.027    -127.386
  N       16.494     125.825    -128.004
  O       17.530     121.164    -123.478
  O       15.135     121.889    -124.232
  H       17.003     127.381    -125.638
  H       14.543     121.904    -125.008
  H       17.411     126.315    -132.347
  H       15.144     125.884    -126.321
  H       18.500     126.267    -127.805
  H       16.793     125.073    -125.530
  H       18.818     124.267    -124.524
  H       20.000     123.516    -126.984
  H       18.283     121.697    -127.153
  H       13.086     127.489    -132.003
  H       12.619     127.307    -130.308
  H       18.996     121.814    -125.529
  P       21.277     125.244    -124.523
  C       20.674     126.704    -122.488
  O       20.698     125.393    -123.031
  O       22.551     125.977    -124.779
  O       21.492     123.659    -124.650
  H       22.451     123.466    -124.644
  H       20.270     126.672    -121.498
  H       20.064     127.333    -123.102
  H       21.670     127.095    -122.455

 6  7  8  9  10  11  12  13  14  15  25  28  32  33  34  35 0
 6-311+G(2d,p)
 ****
 36  39  40 0
 6-311+G(2d,p)
 ****
 1  2  3  4  5  16  17  18  19  20  21  22  23  24 0
 3-21G
 ****
 26  27  29  30  31  37  38  41  42  43  44  45  46  47 0
 3-21G
 ****
 48 0
 3-21G
 ****


