%nproc=1
%NoSave
%Mem=1900MB
#P OB98/GEN NMR

erre ene a

0 1
  C       28.674      24.390     -61.100
  O       27.310      24.070     -61.287
  P       26.866      22.657     -61.890
  C       26.731      23.568     -64.281
  O       27.326      22.603     -63.424
  C       27.214      23.408     -65.721
  O       28.664      23.344     -65.738
  C       26.680      22.153     -66.425
  O       26.417      22.510     -67.786
  C       27.849      21.191     -66.343
  O       27.785      20.174     -67.333
  C       29.027      22.161     -66.477
  N       30.275      21.593     -65.990
  C       30.971      20.756     -66.865
  O       30.465      20.423     -67.937
  N       32.214      20.309     -66.491
  C       32.633      20.521     -65.282
  N       33.896      20.120     -64.975
  C       31.810      21.188     -64.254
  C       30.674      21.732     -64.682
  O       25.437      22.291     -61.659
  O       27.845      21.603     -61.184
  H       27.310      20.897     -60.771
  H       27.139      19.494     -67.046
  H       32.148      21.230     -63.229
  H       30.014      22.267     -64.010
  H       29.161      22.462     -67.524
  H       27.860      20.708     -65.359
  H       25.764      21.768     -65.968
  H       26.922      24.305     -66.280
  H       34.445      19.703     -65.716
  H       27.010      24.561     -63.920
  H       34.413      20.514     -64.190
  H       25.640      23.490     -64.229
  P       25.011      22.076     -68.430
  C       26.013      20.311     -70.045
  O       25.155      20.570     -68.955
  O       25.014      22.911     -69.803
  O       23.786      22.405     -67.641
  H       24.093      23.054     -70.088
  H       25.935      19.253     -70.308
  H       27.049      20.527     -69.773
  H       25.725      20.909     -70.913
  H       28.756      25.374     -60.689
  H       29.181      24.353     -62.041
  H       29.117      23.685     -60.428

 3  4  5  6  7  8  9  10  11  12  13  24  27  28  29  30  32 0
 6-311+G(2d,p)
 ****
 34  35 0
 6-311+G(2d,p)
 ****
 1  2  14  15  16  17  18  19  20  21  22  23  25  26 0
 3-21G
 ****
 31  33  36  37  38  39  40  41  42  43  44  45  46 0
 3-21G
 ****


