%nproc=1
%NoSave
%Mem=1900MB
#P OB98/GEN NMR

erre ene a

0 1
  C      236.233    -382.357    -191.752
  O      235.776    -381.205    -192.431
  H      236.739    -382.043    -190.836
  H      236.947    -382.904    -192.372
  H      235.398    -383.009    -191.484
  P      234.863    -381.390    -193.736
  C      233.005    -380.054    -192.549
  O      233.340    -381.233    -193.265
  C      232.072    -379.183    -193.390
  O      230.914    -379.944    -193.799
  C      231.527    -377.967    -192.648
  O      232.504    -376.950    -192.547
  C      230.328    -377.620    -193.514
  O      230.732    -376.873    -194.672
  C      229.809    -379.018    -193.912
  N      228.674    -379.454    -193.100
  C      227.448    -378.856    -193.377
  O      227.298    -377.981    -194.230
  N      226.390    -379.279    -192.616
  C      226.463    -380.137    -191.555
  O      225.500    -380.413    -190.847
  C      227.784    -380.717    -191.292
  C      228.812    -380.354    -192.064
  O      235.149    -382.600    -194.558
  O      235.120    -380.045    -194.568
  H      229.951    -376.832    -195.259
  H      235.704    -380.236    -195.323
  H      225.497    -378.849    -192.794
  H      227.878    -381.411    -190.467
  H      229.798    -380.770    -191.881
  H      229.500    -379.026    -194.964
  H      229.598    -377.013    -192.982
  H      231.171    -378.264    -191.653
  H      232.614    -378.877    -194.296
  H      233.924    -379.497    -192.331
  H      232.528    -380.334    -191.603
  P      233.115    -376.570    -191.116
  C      235.376    -377.727    -191.500
  O      234.183    -377.702    -190.728
  O      232.112    -376.255    -190.055
  O      234.038    -375.299    -191.421
  H      233.714    -374.533    -190.908
  H      236.009    -378.517    -191.154
  H      235.886    -376.792    -191.399
  H      235.132    -377.891    -192.529

 6  7  8  9  10  11  12  13  14  15  16  26  31  32  33  34  35 0
 6-311+G(2d,p)
 ****
 36  37 0
 6-311+G(2d,p)
 ****
 1  2  3  4  5  17  18  19  20  21  22  23  24  25 0
 3-21G
 ****
 27  28  29  30  38  39  40  41  42  43  44  45 0
 3-21G
 ****


