%nproc=1
%NoSave
%Mem=1900MB
#P OB98/GEN NMR

erre ene a

0 1
  C       16.139      -9.320      40.728
  O       16.338      -8.245      41.624
  P       16.566      -8.524      43.184
  C       14.254      -7.515      43.678
  O       15.131      -8.616      43.892
  C       12.827      -8.005      43.449
  O       12.798      -9.066      42.467
  C       12.168      -8.594      44.687
  O       11.810      -7.597      45.625
  C       10.998      -9.344      44.064
  O        9.915      -8.449      43.773
  C       11.627      -9.869      42.756
  N       11.958     -11.285      42.827
  C       10.886     -12.155      43.048
  O        9.754     -11.715      43.251
  N       11.130     -13.507      43.043
  C       12.347     -13.942      42.952
  N       12.522     -15.289      42.893
  C       13.521     -13.047      42.882
  C       13.254     -11.744      42.802
  O       17.540      -7.617      43.858
  O       17.080     -10.042      43.234
  H       17.889     -10.082      43.779
  H        9.509      -8.216      44.631
  H       14.519     -13.459      42.876
  H       14.052     -11.014      42.723
  H       10.942      -9.709      41.915
  H       10.605     -10.125      44.723
  H       12.850      -9.312      45.160
  H       12.236      -7.163      43.063
  H       11.693     -15.870      42.925
  H       14.599      -6.961      42.800
  H       13.360     -15.714      42.504
  H       14.298      -6.846      44.544
  P       12.373      -7.769      47.117
  C        9.960      -7.278      47.917
  O       11.122      -8.067      48.071
  O       12.812      -6.282      47.519
  O       13.513      -8.725      47.246
  H       13.616      -6.315      48.069
  H        9.115      -7.808      48.364
  H        9.740      -7.089      46.863
  H       10.093      -6.326      48.439
  H       16.005      -8.939      39.737
  H       15.269      -9.870      41.019
  H       16.992      -9.965      40.750

 3  4  5  6  7  8  9  10  11  12  13  24  27  28  29  30  32 0
 6-311+G(2d,p)
 ****
 34  35 0
 6-311+G(2d,p)
 ****
 1  2  14  15  16  17  18  19  20  21  22  23  25  26 0
 3-21G
 ****
 31  33  36  37  38  39  40  41  42  43  44  45  46 0
 3-21G
 ****


