%nproc=1
%NoSave
%Mem=1900MB
#P OB98/GEN NMR

erre ene a

0 1
  C      249.618    -189.061    -166.200
  O      249.685    -189.844    -167.400
  P      249.678    -189.064    -168.802
  C      252.117    -189.512    -169.586
  O      250.731    -189.772    -169.789
  C      252.963    -190.027    -170.765
  O      252.454    -191.297    -171.253
  C      252.974    -189.071    -171.970
  O      254.234    -189.218    -172.643
  C      251.874    -189.636    -172.847
  O      251.997    -189.175    -174.199
  C      252.094    -191.133    -172.644
  N      249.596    -193.427    -176.377
  C      250.769    -192.683    -176.412
  N      251.370    -192.572    -177.611
  N      251.291    -192.111    -175.358
  C      250.584    -192.349    -174.221
  C      249.419    -193.054    -174.057
  C      248.838    -193.664    -175.235
  O      247.796    -194.327    -175.277
  N      249.001    -193.052    -172.751
  C      249.914    -192.328    -172.123
  N      250.914    -191.917    -172.962
  O      250.395    -187.671    -168.434
  O      248.312    -188.844    -169.365
  H      251.183    -189.450    -174.675
  H      249.726    -186.952    -168.438
  H      249.229    -193.839    -177.223
  H      249.899    -192.086    -171.068
  H      252.923    -191.524    -173.254
  H      250.895    -189.319    -172.467
  H      251.049    -193.027    -178.452
  H      252.823    -188.016    -171.723
  H      252.249    -192.059    -177.653
  H      253.985    -190.190    -170.411
  H      252.457    -189.990    -168.663
  H      252.260    -188.437    -169.436
  P      255.248    -187.980    -172.574
  C      255.881    -188.269    -170.073
  O      256.302    -188.333    -171.419
  O      254.362    -186.802    -171.931
  O      255.839    -187.579    -173.887
  H      254.713    -185.935    -172.190
  H      255.708    -189.283    -169.698
  H      254.962    -187.681    -169.957
  H      256.667    -187.787    -169.475
  H      249.631    -189.710    -165.349
  H      248.714    -188.488    -166.198
  H      250.459    -188.401    -166.158

 3  4  5  6  7  8  9  10  11  12  23  26  30  31 0
 6-311+G(2d,p)
 ****
 33  35  36  37  38 0
 6-311+G(2d,p)
 ****
 1  2  13  14  15  16  17  18  19  20  21  22  24  25 0
 3-21G
 ****
 27  28  29  32  34  39  40  41  42  43  44  45  46  47  48  49 0
 3-21G
 ****


