%nproc=1
%NoSave
%Mem=1900MB
#P OB98/GEN NMR

erre ene a

0 1
  C      304.266      95.653      74.917
  O      303.791      95.179      76.162
  H      305.202      95.141      74.681
  H      304.453      96.729      74.973
  H      303.539      95.442      74.129
  P      302.395      95.783      76.670
  C      303.410      98.059      77.442
  O      302.538      97.377      76.551
  C      302.747      99.342      77.953
  O      303.572      99.898      79.020
  C      302.609     100.435      76.879
  O      301.448     101.227      77.181
  C      303.857     101.266      77.120
  O      303.740     102.524      76.500
  C      303.882     101.256      78.645
  N      306.156     103.969      82.312
  C      304.859     103.688      82.073
  N      304.333     102.946      81.076
  C      305.306     102.451      80.291
  C      306.669     102.655      80.408
  C      307.094     103.463      81.476
  N      308.413     103.772      81.712
  N      307.346     102.003      79.392
  C      306.404     101.413      78.681
  N      305.158     101.656      79.189
  O      302.431      95.515      78.248
  O      301.173      95.213      76.033
  H      304.476     103.115      76.761
  H      301.998      94.666      78.450
  H      304.147     104.114      82.774
  H      306.565     100.815      77.795
  H      303.117     101.910      79.080
  H      304.743     100.776      76.705
  H      302.529     100.037      75.864
  H      301.776      99.094      78.399
  H      304.333      98.301      76.906
  H      303.644      97.407      78.289
  H      308.630     104.382      82.484
  H      309.120     103.431      81.077
  P      300.044     100.845      76.501
  C      300.434     101.981      74.185
  O      300.191     100.782      74.905
  O      299.194     102.189      76.710
  O      299.329      99.685      77.115
  H      298.301     101.967      77.034
  H      300.505     101.762      73.140
  H      301.351     102.419      74.520
  H      299.630     102.667      74.352

 6  7  8  9  10  11  12  13  14  15  25  28  32  33  34  35 0
 6-311+G(2d,p)
 ****
 36  37  40 0
 6-311+G(2d,p)
 ****
 1  2  3  4  5  16  17  18  19  20  21  22  23  24 0
 3-21G
 ****
 26  27  29  30  31  38  39 41  42  43  44  45  46  47  48 0
 3-21G
 ****


