%nproc=1
%NoSave
%Mem=1900MB
#P OB98/GEN NMR

erre ene a

0 1
  C      380.445     263.590     300.469
  O      379.960     264.827     299.978
  H      381.322     263.302     299.882
  H      379.681     262.812     300.358
  H      380.738     263.674     301.515
  P      378.767     265.555     300.763
  C      376.210     265.245     300.928
  O      377.397     264.938     300.208
  C      374.984     264.904     300.076
  O      374.966     263.496     299.761
  C      373.655     265.211     300.762
  O      373.375     266.594     300.749
  C      372.710     264.356     299.929
  O      372.359     265.024     298.702
  C      373.572     263.103     299.642
  N      373.264     261.986     300.538
  C      372.176     261.194     300.181
  O      371.467     261.417     299.191
  N      371.898     260.140     301.017
  C      372.514     259.885     302.204
  O      372.171     258.984     302.963
  C      373.642     260.765     302.545
  C      373.955     261.760     301.714
  O      378.822     267.045     300.786
  O      378.864     264.942     302.242
  H      371.877     265.834     298.961
  H      379.249     265.606     302.842
  H      371.108     259.573     300.779
  H      374.165     260.590     303.474
  H      374.787     262.425     301.948
  H      373.429     262.766     298.610
  H      371.778     264.139     300.451
  H      373.665     264.816     301.780
  H      375.065     265.463     299.127
  H      376.208     266.314     301.158
  H      376.196     264.669     301.866
  P      372.606     267.258     301.984
  C      370.661     266.653     303.550
  O      371.392     266.294     302.388
  O      372.242     268.702     301.814
  O      373.630     267.076     303.208
  H      373.876     267.960     303.565
  H      369.882     265.939     303.716
  H      370.232     267.624     303.416
  H      371.318     266.667     304.395

 6  7  8  9  10  11  12  13  14  15  16  26  31  32  33  34  35 0
 6-311+G(2d,p)
 ****
 36  37 0
 6-311+G(2d,p)
 ****
 1  2  3  4  5  17  18  19  20  21  22  23  24  25 0
 3-21G
 ****
 27  28  29  30  38  39  40  41  42  43  44  45 0
 3-21G
 ****


