%nproc=1
%NoSave
%Mem=1900MB
#P OB98/GEN NMR

erre ene a

0 1
  C     -117.588     -88.877      10.510
  O     -116.820     -87.790      10.035
  H     -117.997     -88.615      11.489
  H     -116.958     -89.762      10.622
  H     -118.417     -89.095       9.832
  P     -116.272     -87.831       8.530
  C     -114.646     -89.319       7.192
  O     -115.386     -89.160       8.395
  C     -114.030     -90.714       7.141
  O     -115.065     -91.718       7.210
  C     -113.257     -91.005       5.860
  O     -111.997     -90.360       5.872
  C     -113.200     -92.525       5.903
  O     -112.162     -92.973       6.788
  C     -114.597     -92.868       6.471
  N     -115.559     -93.254       5.439
  C     -115.676     -94.615       5.179
  O     -114.991     -95.468       5.743
  N     -116.598     -94.965       4.230
  C     -117.336     -94.101       3.475
  O     -118.113     -94.465       2.597
  C     -117.147     -92.674       3.769
  C     -116.282     -92.321       4.722
  O     -115.609     -86.585       8.046
  O     -117.574     -88.179       7.665
  H     -112.217     -93.948       6.811
  H     -117.926     -87.366       7.259
  H     -116.688     -95.946       4.019
  H     -117.711     -91.959       3.186
  H     -116.125     -91.273       4.949
  H     -114.521     -93.693       7.191
  H     -112.994     -92.966       4.928
  H     -113.843     -90.701       4.985
  H     -113.385     -90.835       8.021
  H     -113.849     -88.567       7.168
  H     -115.314     -89.159       6.341
  P     -111.132     -90.230       4.534
  C     -109.752     -91.763       3.016
  O     -110.573     -91.693       4.175
  O     -110.097     -89.155       4.546
  O     -112.222     -89.969       3.392
  H     -112.190     -89.034       3.112
  H     -109.433     -92.773       2.865
  H     -108.896     -91.135       3.147
  H     -110.309     -91.434       2.164

 6  7  8  9  10  11  12  13  14  15  16  26  31  32  33  34  35 0
 6-311+G(2d,p)
 ****
 36  37 0
 6-311+G(2d,p)
 ****
 1  2  3  4  5  17  18  19  20  21  22  23  24  25 0
 3-21G
 ****
 27  28  29  30  38  39  40  41  42  43  44  45 0
 3-21G
 ****


