%nproc=1
%NoSave
%Mem=1900MB
#P OB98/GEN NMR

erre ene a

0 1
  C     1081.931    -282.994     789.165
  O     1081.904    -283.445     790.517
  P     1080.606    -284.264     790.995
  C     1081.827    -286.529     791.507
  O     1080.928    -285.802     790.673
  C     1082.993    -287.058     790.671
  O     1083.758    -285.958     790.102
  C     1083.990    -287.875     791.457
  O     1083.488    -289.171     791.758
  C     1085.196    -287.866     790.518
  O     1085.020    -288.841     789.481
  C     1085.113    -286.445     789.922
  N     1086.089    -285.522     790.496
  C     1087.420    -285.755     790.151
  O     1087.777    -286.694     789.434
  N     1088.327    -284.891     790.692
  C     1088.055    -283.866     791.534
  O     1088.918    -283.109     791.976
  C     1086.640    -283.693     791.890
  C     1085.735    -284.518     791.371
  O     1079.539    -283.841     789.879
  O     1080.204    -283.959     792.400
  H     1079.948    -283.717     789.002
  H     1085.885    -288.922     789.028
  H     1089.294    -285.036     790.451
  H     1086.389    -282.892     792.590
  H     1084.685    -284.406     791.629
  H     1085.276    -286.478     788.841
  H     1086.142    -288.094     791.024
  H     1084.255    -287.356     792.388
  H     1082.581    -287.648     789.845
  H     1081.311    -287.369     791.973
  H     1082.180    -285.867     792.299
  P     1083.298    -289.537     793.322
  C     1080.703    -289.792     793.278
  O     1081.824    -289.074     793.728
  O     1084.255    -288.448     794.008
  O     1083.652    -290.953     793.648
  H     1084.151    -287.563     793.625
  H     1079.853    -289.553     793.914
  H     1080.876    -290.867     793.319
  H     1080.464    -289.504     792.245
  H     1082.845    -282.467     788.983
  H     1081.102    -282.341     788.990
  H     1081.867    -283.835     788.507

 3  4  5  6  7  8  9  10  11  12  13  24  28  29  30  31  32 0
 6-311+G(2d,p)
 ****
 33  34 0
 6-311+G(2d,p)
 ****
 1  2  14  15  16  17  18  19  20  21  22  23  25  26  27 0
 3-21G
 ****
 35  36  37  38  39  40  41  42  43  44  45 0
 3-21G
 ****


