%nproc=1
%NoSave
%Mem=1900MB
#P OB98/GEN NMR

erre ene a

0 1
  C      556.971    -906.101     310.753
  O      558.176    -905.521     311.198
  P      558.336    -903.924     311.330
  C      560.869    -904.394     311.295
  O      559.810    -903.601     310.778
  C      562.094    -904.302     310.371
  O      561.710    -904.799     309.065
  C      562.630    -902.889     310.139
  O      563.536    -902.426     311.146
  C      563.404    -903.100     308.830
  O      564.671    -903.740     309.119
  C      562.494    -904.062     308.075
  N      561.672    -902.768     303.184
  C      562.644    -903.500     303.776
  N      562.815    -903.788     305.097
  C      561.794    -903.264     305.809
  C      560.737    -902.513     305.344
  C      560.680    -902.247     303.955
  N      559.673    -901.539     303.347
  N      559.904    -902.144     306.386
  C      560.449    -902.679     307.454
  N      561.598    -903.367     307.153
  O      558.015    -903.381     312.690
  O      557.385    -903.342     310.177
  H      565.216    -903.089     309.593
  H      557.198    -902.401     310.343
  H      563.421    -903.886     303.118
  H      560.068    -902.588     308.467
  H      563.055    -904.807     307.494
  H      563.619    -902.152     308.316
  H      561.822    -902.174     309.959
  H      562.867    -904.951     310.763
  H      560.527    -905.433     311.329
  H      559.664    -901.519     302.342
  H      558.863    -901.306     303.911
  H      561.111    -904.074     312.311
  P      563.664    -900.835     311.322
  C      565.858    -901.153     312.714
  O      565.214    -900.566     311.602
  O      562.711    -900.233     312.308
  O      563.455    -900.283     309.816
  H      564.166    -900.521     309.196
  H      566.946    -900.986     312.640
  H      565.682    -902.243     312.725
  H      565.502    -900.707     313.646
  H      557.072    -907.166     310.737
  H      556.748    -905.749     309.767
  H      556.177    -905.828     311.417

 3  4  5  6  7  8  9  10  11  12  22  25  29  30  31  32 0
 6-311+G(2d,p)
 ****
 33  36  37 0
 6-311+G(2d,p)
 ****
 1  2  13  14  15  16  17  18  19  20  21  23  24  26 0
 3-21G
 ****
 27  28  34  35  38  39  40  41  42  43  44  45  46  47  48 0
 3-21G
 ****


