%nproc=1
%NoSave
%Mem=1900MB
#P OB98/GEN NMR

erre ene a

0 1
  C      229.334    -899.150     768.296
  O      228.964    -898.050     767.490
  H      229.581    -900.000     767.649
  H      228.504    -899.440     768.946
  H      230.214    -898.900     768.894
  P      228.461    -896.730     768.249
  C      228.470    -894.180     767.713
  O      228.971    -895.480     767.388
  C      229.428    -893.120     767.175
  O      230.699    -893.220     767.845
  C      229.734    -893.260     765.691
  O      228.703    -892.740     764.873
  C      231.010    -892.430     765.595
  O      230.738    -891.030     765.443
  C      231.701    -892.720     766.940
  N      232.818    -893.650     766.785
  C      233.971    -893.130     766.187
  O      234.054    -891.960     765.811
  N      234.992    -894.000     766.013
  C      234.982    -895.340     766.315
  O      235.930    -896.090     766.071
  C      233.750    -895.840     766.926
  C      232.733    -895.000     767.129
  O      229.376    -896.690     769.553
  O      227.009    -896.710     768.576
  H      228.848    -896.950     770.339
  H      229.981    -890.970     764.821
  H      235.842    -893.650     765.578
  H      233.690    -896.890     767.176
  H      231.796    -895.340     767.577
  H      232.099    -891.790     767.374
  H      231.605    -892.750     764.736
  H      229.961    -894.300     765.454
  H      229.005    -892.130     767.392
  H      228.393    -894.070     768.801
  H      227.468    -894.070     767.282
  P      228.714    -893.160     763.317
  C      226.826    -894.020     761.701
  O      227.281    -893.830     763.023
  O      229.737    -894.380     763.337
  O      229.100    -892.030     762.402
  H      229.742    -894.830     764.214
  H      225.858    -894.476     761.719
  H      227.510    -894.654     761.176
  H      226.765    -893.074     761.205

 6  7  8  9  10  11  12  13  14  15  16  27  31  32  33  34  35 0
 6-311+G(2d,p)
 ****
 36  37 0
 6-311+G(2d,p)
 ****
 1  2  3  4  5  17  18  19  20  21  22  23  24  25 0
 3-21G
 ****
 26  28  29  30  38  39  40  41  42  43  44  45 0
 3-21G
 ****


