%nproc=1
%NoSave
%Mem=1900MB
#P OB98/GEN NMR

erre ene a

0 1
  C     -260.334      11.524    -434.227
  O     -261.205      10.497    -433.784
  P     -261.637       9.378    -434.846
  C     -260.031       7.413    -434.243
  O     -260.346       8.471    -435.136
  C     -259.927       6.098    -435.019
  O     -261.247       5.584    -435.311
  C     -259.234       6.238    -436.366
  O     -257.824       6.290    -436.222
  C     -259.723       4.992    -437.097
  O     -258.932       3.846    -436.743
  C     -261.161       4.850    -436.553
  N     -262.167       5.293    -437.510
  C     -262.206       4.596    -438.718
  O     -261.431       3.678    -438.985
  N     -263.139       5.019    -439.622
  C     -263.983       6.081    -439.472
  O     -264.759       6.449    -440.342
  C     -263.878       6.798    -438.189
  C     -262.987       6.382    -437.288
  O     -261.841      10.198    -436.206
  O     -262.860       8.608    -434.475
  H     -259.210       3.122    -437.337
  H     -262.578       9.811    -436.719
  H     -263.201       4.514    -440.494
  H     -264.529       7.648    -438.033
  H     -262.884       6.904    -436.342
  H     -261.365       3.804    -436.298
  H     -259.664       5.100    -438.181
  H     -259.607       7.128    -436.889
  H     -259.406       5.364    -434.391
  H     -260.812       7.334    -433.483
  H     -259.084       7.638    -433.740
  P     -256.993       6.946    -437.431
  C     -257.556       9.404    -436.744
  O     -257.689       8.366    -437.690
  O     -257.459       6.020    -438.648
  O     -255.521       6.962    -437.184
  H     -258.374       5.710    -438.546
  H     -256.571       9.389    -436.270
  H     -258.330       9.297    -435.980
  H     -257.690      10.364    -437.253
  H     -260.133      12.195    -433.418
  H     -260.795      12.061    -435.029
  H     -259.417      11.091    -434.568

 3  4  5  6  7  8  9  10  11  12  13  23  28  29  30  31  32 0
 6-311+G(2d,p)
 ****
 33  34 0
 6-311+G(2d,p)
 ****
 1  2  14  15  16  17  18  19  20  21  22  24  25  26 0
 3-21G
 ****
 27  35  36  37  38  39  40  41  42  43  44  45 0
 3-21G
 ****


