%nproc=1
%NoSave
%Mem=1900MB
#P OB98/GEN NMR

erre ene a

0 1
  C      509.520    -404.906    -796.310
  O      509.329    -403.967    -795.260
  P      509.829    -404.237    -793.752
  C      511.395    -402.177    -793.634
  O      510.246    -402.831    -793.089
  C      511.239    -400.650    -793.645
  O      510.297    -400.232    -794.661
  C      510.697    -400.073    -792.319
  O      511.720    -400.005    -791.349
  C      510.159    -398.727    -792.799
  O      511.218    -397.768    -792.915
  C      509.601    -399.078    -794.184
  N      504.961    -396.948    -794.649
  C      506.205    -396.444    -794.750
  N      507.395    -397.059    -794.618
  C      507.203    -398.375    -794.362
  C      506.004    -399.038    -794.233
  C      504.835    -398.277    -794.393
  N      503.560    -398.797    -794.274
  N      506.204    -400.378    -793.951
  C      507.519    -400.527    -793.927
  N      508.166    -399.332    -794.180
  O      510.896    -405.297    -793.650
  O      508.517    -404.658    -792.944
  H      511.456    -397.485    -792.011
  H      508.770    -405.250    -792.202
  H      506.268    -395.368    -794.975
  H      508.039    -401.451    -793.750
  H      509.772    -398.279    -794.918
  H      509.410    -398.305    -792.109
  H      509.870    -400.692    -791.949
  H      512.218    -400.212    -793.883
  H      511.534    -402.527    -794.663
  H      502.781    -398.170    -794.362
  H      503.450    -399.781    -794.023
  H      512.269    -402.454    -793.033
  P      511.368    -399.637    -789.831
  C      512.100    -401.914    -788.852
  O      512.351    -400.515    -788.909
  O      509.921    -399.706    -789.466
  O      511.949    -398.144    -789.645
  H      511.402    -397.686    -788.985
  H      511.270    -402.102    -788.178
  H      513.001    -402.424    -788.485
  H      511.863    -402.292    -789.865
  H      509.110    -404.515    -797.217
  H      509.028    -405.823    -796.062
  H      510.566    -405.087    -796.441

 3  4  5  6  7  8  9  10  11  12  22  25  29  30  31  32 0
 6-311+G(2d,p)
 ****
 33  36  37 0
 6-311+G(2d,p)
 ****
 1  2  13  14  15  16  17  18  19  20  21  23  24  26 0
 3-21G
 ****
 27  28  34  35  38  39  40  41  42  43  44  45  46  47  48 0
 3-21G
 ****


