%nproc=1
%NoSave
%Mem=1900MB
#P OB98/GEN NMR

erre ene a

0 1
  C     -893.120    -307.864     260.578
  O     -894.180    -307.080     261.073
  H     -893.450    -308.901     260.492
  H     -892.270    -307.826     261.260
  H     -892.810    -307.511     259.585
  P     -893.900    -305.504     261.248
  C     -894.810    -304.760     258.929
  O     -893.670    -304.922     259.775
  C     -895.040    -303.280     258.649
  O     -893.880    -302.715     257.986
  C     -896.210    -303.004     257.714
  O     -897.470    -303.094     258.371
  C     -895.890    -301.606     257.227
  O     -896.310    -300.608     258.163
  C     -894.340    -301.632     257.161
  N     -893.720    -299.308     252.650
  C     -894.150    -298.855     253.866
  N     -894.270    -299.541     255.016
  C     -893.870    -300.808     254.851
  C     -893.400    -301.414     253.691
  C     -893.330    -300.601     252.552
  N     -892.920    -301.070     251.324
  N     -893.140    -302.748     253.923
  C     -893.410    -302.941     255.186
  N     -893.870    -301.807     255.795
  O     -892.430    -305.483     261.897
  O     -894.890    -304.770     262.086
  H     -897.220    -300.867     258.431
  H     -892.500    -305.335     262.855
  H     -894.430    -297.801     253.875
  H     -893.330    -303.889     255.711
  H     -893.890    -300.708     257.539
  H     -896.360    -301.398     256.266
  H     -896.180    -303.696     256.855
  H     -895.180    -302.765     259.606
  H     -895.700    -305.184     259.434
  H     -894.640    -305.320     257.997
  H     -892.950    -300.455     250.533
  H     -892.740    -302.061     251.216
  P     -898.740    -303.598     257.514
  C     -898.200    -306.164     257.495
  O     -898.270    -304.939     256.762
  O     -898.840    -302.532     256.330
  O     -900.000    -303.713     258.289
  H     -899.780    -302.385     256.103
  H     -897.872    -306.949     256.847
  H     -899.168    -306.403     257.884
  H     -897.508    -306.057     258.304

 6  7  8  9  10  11  12  13  14  15  25  28  32  33  34  35 0
 6-311+G(2d,p)
 ****
 36  37  40 0
 6-311+G(2d,p)
 ****
 1  2  3  4  5  16  17  18  19  20  21  22  23  24 0
 3-21G
 ****
 26  27  29  30  31  38  39 41  42  43  44  45  46  47  48 0
 3-21G
 ****


