%nproc=1
%NoSave
%Mem=1900MB
#P OB98/GEN NMR

erre ene a

0 1
  C     -375.690     476.949    -892.390
  O     -374.325     476.875    -892.760
  P     -373.550     475.487    -892.560
  C     -372.141     475.437    -894.740
  O     -373.230     474.855    -894.000
  C     -372.662     476.253    -895.930
  O     -373.466     477.358    -895.440
  C     -371.581     476.900    -896.810
  O     -371.087     476.134    -897.900
  C     -372.352     478.079    -897.420
  O     -373.120     477.628    -898.560
  C     -373.298     478.489    -896.310
  N     -372.227     483.525    -896.490
  C     -372.698     482.666    -897.430
  N     -372.974     481.340    -897.310
  C     -372.709     480.933    -896.060
  C     -372.228     481.687    -895.000
  C     -371.967     483.038    -895.260
  N     -371.489     483.923    -894.320
  N     -372.046     480.894    -893.830
  C     -372.424     479.698    -894.230
  N     -372.825     479.646    -895.540
  O     -374.123     474.540    -891.550
  O     -372.092     475.985    -892.080
  H     -373.759     478.331    -898.750
  H     -371.744     475.332    -891.400
  H     -372.928     483.086    -898.410
  H     -372.405     478.834    -893.580
  H     -374.305     478.772    -896.700
  H     -371.681     478.858    -897.770
  H     -370.766     477.261    -896.180
  H     -373.331     475.609    -896.540
  H     -371.490     474.644    -895.090
  H     -371.301     484.872    -894.600
  H     -371.205     483.574    -893.400
  H     -371.543     476.061    -894.030
  P     -369.657     475.348    -897.800
  C     -370.196     473.298    -899.330
  O     -370.025     473.803    -898.020
  O     -368.869     475.627    -896.550
  O     -368.940     475.772    -899.160
  H     -369.350     475.395    -899.950
  H     -370.213     472.195    -899.280
  H     -369.401     473.609    -900.000
  H     -371.154     473.657    -899.750
  H     -376.059     477.934    -892.584
  H     -375.789     476.730    -891.347
  H     -376.253     476.239    -892.959

 3  4  5  6  7  8  9  10  11  12  22  25  29  30  31  32 0
 6-311+G(2d,p)
 ****
 33  36  37 0
 6-311+G(2d,p)
 ****
 1  2  13  14  15  16  17  18  19  20  21  23  24  26 0
 3-21G
 ****
 27  28  34  35  38  39  40  41  42  43  44  45  46  47  48 0
 3-21G
 ****


