%nproc=1
%NoSave
%Mem=1900MB
#P OB98/GEN NMR

erre ene a

0 1
  C     -274.998     182.280    -114.250
  O     -275.972     183.000    -113.518
  H     -274.645     181.449    -113.635
  H     -274.152     182.926    -114.493
  H     -275.441     181.879    -115.166
  P     -276.598     184.292    -114.232
  C     -279.025     183.936    -113.409
  O     -278.128     183.892    -114.510
  C     -280.460     183.692    -113.880
  O     -280.578     182.376    -114.446
  C     -281.506     183.776    -112.776
  O     -281.876     185.128    -112.547
  C     -282.648     182.987    -113.398
  O     -283.375     183.825    -114.317
  C     -281.914     181.877    -114.172
  N     -283.290     176.932    -114.190
  C     -283.710     177.984    -114.925
  N     -283.346     179.278    -114.828
  C     -282.433     179.444    -113.859
  C     -281.907     178.468    -113.026
  C     -282.370     177.155    -113.220
  N     -281.940     176.086    -112.465
  N     -280.996     179.008    -112.143
  C     -280.925     180.282    -112.480
  N     -281.802     180.603    -113.487
  O     -275.834     184.821    -115.402
  O     -276.723     185.297    -112.991
  H     -283.618     184.636    -113.828
  H     -277.030     184.824    -112.198
  H     -284.448     177.753    -115.693
  H     -280.246     181.005    -112.045
  H     -282.392     181.672    -115.136
  H     -283.363     182.634    -112.658
  H     -281.177     183.275    -111.859
  H     -280.676     184.410    -114.680
  H     -278.963     184.911    -112.909
  H     -282.460     175.225    -112.546
  H     -281.354     176.277    -111.667
  H     -278.720     183.161    -112.699
  P     -281.101     186.027    -111.466
  C     -281.259     188.190    -112.846
  O     -280.398     187.187    -112.316
  O     -280.210     185.260    -110.546
  O     -282.267     186.807    -110.695
  H     -281.924     187.171    -109.855
  H     -280.680     188.906    -113.391
  H     -281.771     188.681    -112.045
  H     -281.974     187.737    -113.501

 6  7  8  9  10  11  12  13  14  15  25  28  32  33  34  35 0
 6-311+G(2d,p)
 ****
 36  39  40 0
 6-311+G(2d,p)
 ****
 1  2  3  4  5  16  17  18  19  20  21  22  23  24 0
 3-21G
 ****
 26  27  29  30  31  37  38  41  42  43  44  45  46  47 0
 3-21G
 ****
 48 0
 3-21G
 ****


