%nproc=1
%NoSave
%Mem=1900MB
#P OB98/GEN NMR

erre ene a

0 1
  C     -167.967     231.167     111.124
  O     -167.445     231.006     112.433
  P     -168.490     230.597     113.590
  C     -170.176     231.976     115.034
  O     -169.000     231.970     114.239
  C     -170.169     233.205     115.949
  O     -169.128     233.089     116.939
  C     -169.923     234.520     115.225
  O     -171.120     234.997     114.633
  C     -169.408     235.398     116.359
  O     -170.496     235.914     117.148
  C     -168.559     234.407     117.170
  N     -163.862     234.888     118.985
  C     -165.083     235.117     119.602
  N     -165.043     235.486     120.902
  N     -166.235     234.995     118.994
  C     -166.122     234.635     117.694
  C     -164.975     234.397     116.971
  C     -163.709     234.485     117.668
  O     -162.611     234.202     117.196
  N     -165.257     234.078     115.669
  C     -166.576     234.092     115.615
  N     -167.149     234.402     116.822
  O     -167.551     229.957     114.711
  O     -169.586     229.675     113.157
  H     -171.109     236.406     116.571
  H     -167.563     228.982     114.656
  H     -163.008     234.986     119.505
  H     -167.158     233.862     114.735
  H     -168.618     234.599     118.250
  H     -168.850     236.269     115.987
  H     -164.191     235.624     121.424
  H     -169.141     234.399     114.464
  H     -165.927     235.660     121.365
  H     -171.133     233.231     116.480
  H     -170.197     231.071     115.648
  H     -171.052     231.982     114.379
  P     -171.030     235.605     113.154
  C     -169.306     237.171     111.996
  O     -169.959     236.800     113.197
  O     -172.434     236.353     112.975
  O     -170.810     234.589     112.080
  H     -172.736     236.265     112.046
  H     -169.060     238.231     112.051
  H     -169.936     236.990     111.123
  H     -168.385     236.592     111.901
  H     -167.176     231.436     110.455
  H     -168.709     231.938     111.128
  H     -168.410     230.248     110.801

 3  4  5  6  7  8  9  10  11  12  23  26  30  31 0
 6-311+G(2d,p)
 ****
 33  35  36  37  38 0
 6-311+G(2d,p)
 ****
 1  2  13  14  15  16  17  18  19  20  21  22  24  25 0
 3-21G
 ****
 27  28  29  32  34  39  40  41  42  43  44  45  46  47  48  49 0
 3-21G
 ****


