%nproc=1
%NoSave
%Mem=1900MB
#P OB98/GEN NMR

erre ene a

0 1
  C      104.250     -37.674      28.574
  O      105.064     -36.823      27.793
  H      104.862     -38.122      29.364
  H      103.836     -38.474      27.952
  H      103.438     -37.104      29.034
  P      104.356     -36.116      26.538
  C      105.224     -37.712      24.690
  O      105.289     -36.414      25.267
  C      105.824     -37.700      23.284
  O      105.706     -39.001      22.669
  C      105.173     -36.702      22.330
  O      105.720     -35.407      22.498
  C      105.519     -37.317      20.983
  O      106.876     -36.997      20.600
  C      105.377     -38.817      21.266
  N      102.814     -42.125      18.436
  C      104.144     -41.764      18.398
  N      104.905     -42.344      17.443
  N      104.687     -40.895      19.213
  C      103.797     -40.349      20.077
  C      102.456     -40.625      20.213
  C      101.881     -41.628      19.341
  O      100.732     -42.053      19.382
  N      101.895     -39.876      21.216
  C      102.888     -39.128      21.662
  N      104.061     -39.373      20.996
  O      104.594     -34.551      26.807
  O      102.907     -36.415      26.366
  H      107.097     -37.476      19.781
  H      103.798     -34.062      26.526
  H      102.459     -42.823      17.804
  H      102.812     -38.408      22.465
  H      106.090     -39.415      20.687
  H      104.877     -36.931      20.189
  H      104.500     -42.781      16.625
  H      104.082     -36.692      22.455
  H      105.862     -42.022      17.368
  H      106.897     -37.490      23.388
  H      104.175     -38.024      24.635
  H      105.776     -38.415      25.321
  P      104.714     -34.163      22.578
  C      105.361     -33.657      20.115
  O      105.111     -33.132      21.413
  O      105.179     -33.412      23.915
  O      103.272     -34.532      22.644
  H      104.536     -33.577      24.629
  H      105.612     -32.858      19.449
  H      104.485     -34.157      19.758
  H      106.174     -34.351      20.162

 6  7  8  9  10  11  12  13  14  15  26  29  33  34 0
 6-311+G(2d,p)
 ****
 36  38  39  40  41 0
 6-311+G(2d,p)
 ****
 1  2  3  4  5  16  17  18  19  20  21  22  23  24  25 0
 3-21G
 ****
 27  28  30  31  32  35  37  42  43  44  45  46  47 0
 3-21G
 ****
 48  49 0
 3-21G
 ****


