%nproc=1
%NoSave
%Mem=1900MB
#P OB98/GEN NMR

erre ene a

0 1
  C      166.942     197.075    -285.768
  O      167.990     197.521    -286.635
  P      168.761     198.865    -286.201
  C      170.856     197.746    -285.137
  O      170.332     198.536    -286.197
  C      171.986     198.485    -284.424
  O      172.381     197.792    -283.225
  C      173.261     198.614    -285.242
  O      173.174     199.671    -286.188
  C      174.277     198.945    -284.158
  O      174.231     200.351    -283.854
  C      173.767     198.122    -282.964
  N      177.801     195.980    -280.765
  C      177.373     197.293    -280.743
  N      178.113     198.154    -280.010
  N      176.319     197.726    -281.385
  C      175.659     196.748    -282.051
  C      175.982     195.416    -282.149
  C      177.171     194.956    -281.462
  O      177.611     193.811    -281.474
  N      175.070     194.732    -282.908
  C      174.178     195.643    -283.246
  N      174.501     196.887    -282.763
  O      168.407     198.995    -284.645
  O      168.350     200.075    -286.971
  H      174.677     200.819    -284.588
  H      168.443     199.931    -284.371
  H      178.626     195.703    -280.260
  H      173.287     195.453    -283.833
  H      173.795     198.694    -282.031
  H      175.306     198.719    -284.456
  H      178.893     197.875    -279.436
  H      173.522     197.660    -285.717
  H      177.794     199.113    -279.954
  H      171.619     199.482    -284.145
  H      171.231     196.799    -285.531
  H      170.046     197.503    -284.442
  P      173.589     199.339    -287.702
  C      171.404     198.057    -288.266
  O      172.208     199.196    -288.501
  O      174.139     197.838    -287.605
  O      174.597     200.269    -288.287
  H      174.804     197.677    -288.299
  H      171.348     197.826    -287.199
  H      171.813     197.199    -288.808
  H      170.393     198.258    -288.633
  H      166.510     196.179    -286.162
  H      166.190     197.833    -285.698
  H      167.343     196.880    -284.795

 3  4  5  6  7  8  9  10  11  12  23  26  30  31  33  0
 6-311+G(2d,p)
 ****
 35  36  37  38 0
 6-311+G(2d,p)
 ****
 1  2  13  14  15  16  17  18  19  20  21  22  24  25  27  28  29 0
 3-21G
 ****
 32  34  39  40  41  42  43  44  45  46  47  48  49 0
 3-21G
 ****


