%nproc=1
%NoSave
%Mem=1900MB
#P OB98/GEN NMR

erre ene a

0 1
  C      -64.016    -102.991    -367.216
  O      -62.669    -103.433    -367.398
  P      -61.729    -103.489    -366.102
  C      -61.606    -106.093    -366.099
  O      -61.935    -104.905    -365.382
  C      -62.267    -107.304    -365.441
  O      -63.679    -107.095    -365.258
  C      -62.157    -108.570    -366.274
  O      -60.867    -109.136    -366.156
  C      -63.265    -109.434    -365.685
  O      -62.788    -110.240    -364.593
  C      -64.294    -108.392    -365.188
  N      -65.539    -108.428    -365.942
  C      -66.659    -108.892    -365.246
  O      -66.555    -109.264    -364.075
  N      -67.861    -108.948    -365.907
  C      -67.930    -108.595    -367.153
  N      -69.147    -108.680    -367.754
  C      -66.763    -108.125    -367.928
  C      -65.607    -108.069    -367.265
  O      -62.425    -102.459    -365.097
  O      -60.305    -103.118    -366.369
  H      -63.536    -110.828    -364.356
  H      -61.756    -102.020    -364.541
  H      -66.868    -107.853    -368.966
  H      -64.699    -107.736    -367.757
  H      -64.536    -108.569    -364.132
  H      -63.674    -110.122    -366.431
  H      -62.382    -108.347    -367.326
  H      -61.801    -107.462    -364.457
  H      -69.923    -109.008    -367.193
  H      -60.525    -106.225    -366.129
  H      -69.311    -108.438    -368.721
  H      -61.938    -105.979    -367.138
  P      -59.749    -108.669    -367.203
  C      -58.224    -107.946    -365.266
  O      -58.908    -107.538    -366.435
  O      -60.603    -107.796    -368.240
  O      -58.961    -109.736    -367.885
  H      -60.047    -107.528    -368.992
  H      -57.537    -107.152    -364.968
  H      -57.651    -108.857    -365.453
  H      -58.941    -108.113    -364.457
  H      -64.525    -103.003    -368.157
  H      -64.015    -101.996    -366.824
  H      -64.516    -103.644    -366.531

 3  4  5  6  7  8  9  10  11  12  13  21  23  27  28  29  30  32 0
 6-311+G(2d,p)
 ****
 34  35 0
 6-311+G(2d,p)
 ****
 1  2  14  15  16  17  18  19  20  22  24  25  26 0
 3-21G
 ****
 31  33  36  37  38  39  40  41  42  43  44  45  46 0
 3-21G
 ****


