%nproc=1
%NoSave
%Mem=1900MB
#P OB98/GEN NMR

erre ene a

0 1
  C       45.405     -60.178     208.393
  O       44.055     -59.862     208.660
  H       45.642     -61.130     208.875
  H       46.062     -59.408     208.803
  H       45.576     -60.278     207.318
  P       43.408     -58.576     207.957
  C       41.945     -58.438     210.074
  O       41.986     -58.332     208.657
  C       40.679     -59.173     210.504
  O       39.509     -58.397     210.164
  C       40.492     -60.526     209.828
  O       41.353     -61.495     210.390
  C       39.008     -60.755     210.073
  O       38.773     -61.222     211.410
  C       38.439     -59.329     209.889
  N       37.878     -59.110     208.555
  C       36.505     -59.291     208.430
  O       35.780     -59.620     209.366
  N       35.994     -59.124     207.170
  C       36.723     -58.891     206.040
  O       36.255     -58.967     204.908
  C       38.155     -58.634     206.244
  C       38.663     -58.769     207.471
  O       43.383     -58.595     206.466
  O       44.292     -57.360     208.514
  H       44.939     -57.096     207.833
  H       38.943     -60.464     212.002
  H       35.007     -59.300     207.058
  H       38.757     -58.382     205.380
  H       39.722     -58.614     207.641
  H       37.650     -59.133     210.626
  H       38.584     -61.499     209.396
  H       40.661     -60.433     208.749
  H       40.703     -59.285     211.596
  H       41.942     -57.428     210.498
  H       42.839     -58.966     210.420
  P       42.237     -62.453     209.464
  C       41.642     -64.479     210.915
  O       42.692     -63.713     210.343
  O       43.347     -61.777     208.730
  O       41.183     -63.092     208.439
  H       41.498     -62.948     207.526
  H       42.057     -65.289     211.477
  H       41.019     -64.867     210.137
  H       41.059     -63.858     211.562

 6  7  8  9  10  11  12  13  14  15  16  27  31  32  33  34  35 0
 6-311+G(2d,p)
 ****
 36  37 0
 6-311+G(2d,p)
 ****
 1  2  3  4  5  17  18  19  20  21  22  23  24  25 0
 3-21G
 ****
 26  28  29  30  38  39  40  41  42  43  44  45 0
 3-21G
 ****


