%nproc=1
%NoSave
%Mem=1900MB
#P OB98/GEN NMR

erre ene a

0 1
  C     -131.067     207.725     -18.092
  O     -130.228     208.862     -18.243
  P     -130.835     210.315     -17.932
  C     -129.745     211.490     -20.046
  O     -130.887     211.175     -19.277
  C     -130.146     212.446     -21.184
  O     -130.853     211.717     -22.210
  C     -131.053     213.581     -20.724
  O     -130.317     214.688     -20.235
  C     -131.836     213.886     -21.991
  O     -131.036     214.663     -22.897
  C     -132.062     212.458     -22.553
  N     -133.239     211.700     -22.069
  C     -133.747     210.644     -22.817
  O     -133.280     210.277     -23.902
  N     -134.824     209.988     -22.290
  C     -135.332     210.158     -21.032
  O     -136.268     209.502     -20.588
  C     -134.671     211.178     -20.220
  C     -133.682     211.904     -20.765
  O     -129.696     211.025     -17.067
  O     -132.148     210.287     -17.220
  H     -130.786     215.482     -22.434
  H     -130.018     211.212     -16.165
  H     -135.248     209.269     -22.850
  H     -135.012     211.320     -19.200
  H     -133.186     212.665     -20.175
  H     -132.136     212.486     -23.647
  H     -132.714     214.484     -21.773
  H     -131.767     213.218     -19.972
  H     -129.226     212.856     -21.626
  H     -129.293     210.585     -20.456
  H     -128.990     211.960     -19.407
  P     -130.173     214.912     -18.654
  C     -132.390     216.127     -18.214
  O     -131.671     214.916     -18.082
  O     -129.317     216.060     -18.231
  O     -129.602     213.511     -18.126
  H     -128.617     213.543     -18.038
  H     -133.434     215.944     -17.932
  H     -132.358     216.479     -19.251
  H     -131.969     216.885     -17.555
  H     -130.516     206.841     -18.336
  H     -131.908     207.813     -18.747
  H     -131.408     207.665     -17.080

 3  4  5  6  7  8  9  10  11  12  13  23  28  29  30  31  32 0
 6-311+G(2d,p)
 ****
 33  34 0
 6-311+G(2d,p)
 ****
 1  2  14  15  16  17  18  19  20  21  22  24  25  26  27 0
 3-21G
 ****
 35  36  37  38  39  40  41  42  43  44  45 0
 3-21G
 ****


