%nproc=1
%NoSave
%Mem=1900MB
#P OB98/GEN NMR

erre ene a

0 1
  C      104.036    -437.752    -367.096
  O      103.628    -436.389    -367.297
  P      103.982    -435.592    -368.649
  C      105.717    -433.981    -367.651
  O      104.455    -434.094    -368.310
  C      105.906    -432.634    -366.931
  O      105.508    -431.521    -367.793
  C      105.107    -432.472    -365.623
  O      105.898    -431.619    -364.786
  C      103.855    -431.745    -366.098
  O      103.149    -431.107    -365.048
  C      104.457    -430.796    -367.127
  N      103.099    -426.848    -370.106
  C      104.237    -427.108    -369.415
  N      104.537    -428.190    -368.680
  C      103.538    -429.099    -368.722
  C      102.325    -428.985    -369.389
  C      102.118    -427.790    -370.106
  N      100.941    -427.501    -370.766
  N      101.541    -430.102    -369.178
  C      102.257    -430.876    -368.386
  N      103.481    -430.315    -368.084
  O      102.918    -435.671    -369.700
  O      105.318    -436.295    -369.186
  H      102.955    -431.768    -364.356
  H      105.241    -436.455    -370.140
  H      104.993    -426.330    -369.453
  H      101.955    -431.829    -367.991
  H      104.912    -429.919    -366.641
  H      103.172    -432.476    -366.559
  H      104.902    -433.417    -365.128
  H      106.978    -432.510    -366.743
  H      106.510    -434.115    -368.392
  H      100.845    -426.577    -371.169
  H      100.161    -428.126    -370.668
  H      105.804    -434.795    -366.917
  P      107.247    -432.147    -364.081
  C      106.458    -431.740    -361.669
  O      107.359    -431.344    -362.688
  O      108.468    -432.104    -364.936
  O      106.896    -433.636    -363.614
  H      107.722    -434.126    -363.453
  H      105.464    -431.322    -361.883
  H      106.812    -431.344    -360.712
  H      106.384    -432.833    -361.602
  H      103.700    -438.087    -366.137
  H      105.103    -437.815    -367.142
  H      103.609    -438.368    -367.859

 3  4  5  6  7  8  9  10  11  12  22  25  29  30  31  32 0
 6-311+G(2d,p)
 ****
 33  36  37 0
 6-311+G(2d,p)
 ****
 1  2  13  14  15  16  17  18  19  20  21  23  24  26 0
 3-21G
 ****
 27  28  34  35  38  39  40  41  42  43  44  45  46  47  48 0
 3-21G
 ****


