%nproc=1
%NoSave
%Mem=1900MB
#P OB98/GEN NMR

erre ene a

0 1
  C     -295.821    -130.386     233.354
  O     -295.208    -130.102     232.104
  P     -296.069    -130.097     230.751
  C     -297.039    -127.779     231.304
  O     -297.336    -129.141     231.017
  C     -297.579    -126.872     230.201
  O     -299.016    -127.025     230.131
  C     -297.290    -125.389     230.445
  O     -297.043    -124.757     229.181
  C     -298.598    -124.837     231.002
  O     -298.723    -123.428     230.732
  C     -299.627    -125.728     230.296
  N     -303.545    -123.300     232.562
  C     -302.498    -122.837     231.847
  N     -301.480    -123.538     231.296
  C     -301.649    -124.857     231.498
  C     -302.669    -125.473     232.200
  C     -303.653    -124.640     232.756
  N     -304.733    -125.112     233.472
  N     -302.489    -126.843     232.222
  C     -301.391    -127.049     231.525
  N     -300.853    -125.877     231.054
  O     -296.409    -131.446     230.218
  O     -295.189    -129.252     229.722
  H     -299.633    -123.170     230.985
  H     -295.248    -129.643     228.828
  H     -302.466    -121.761     231.698
  H     -300.942    -128.014     231.335
  H     -299.875    -125.341     229.300
  H     -298.621    -124.979     232.087
  H     -296.449    -125.222     231.122
  H     -297.161    -127.193     229.241
  H     -295.951    -127.670     231.365
  H     -305.451    -124.451     233.729
  H     -304.906    -126.112     233.468
  H     -297.470    -127.510     232.275
  P     -296.197    -123.378     229.244
  C     -294.156    -124.698     228.312
  O     -294.665    -123.842     229.307
  O     -296.687    -122.471     230.329
  O     -296.409    -122.819     227.756
  H     -296.601    -123.550     227.127
  H     -293.109    -124.926     228.551
  H     -294.184    -124.199     227.337
  H     -294.723    -125.629     228.277
  H     -295.086    -130.341     234.130
  H     -296.251    -131.366     233.326
  H     -296.588    -129.665     233.547

 3  4  5  6  7  8  9  10  11  12  22  25  29  30  31  32 0
 6-311+G(2d,p)
 ****
 33  36  37 0
 6-311+G(2d,p)
 ****
 1  2  13  14  15  16  17  18  19  20  21  23  24  26 0
 3-21G
 ****
 27  28  34  35  38  39  40  41  42  43  44  45  46  47  48 0
 3-21G
 ****


