%nproc=1
%NoSave
%Mem=1900MB
#P OB98/GEN NMR

erre ene a

0 1
  C        1.259    -133.208      64.169
  O        0.910    -132.540      65.365
  H        1.228    -132.492      63.345
  H        0.548    -134.013      63.968
  H        2.271    -133.617      64.245
  P        0.937    -133.417      66.707
  C       -0.907    -134.826      67.897
  O       -0.598    -133.715      67.068
  C       -2.391    -134.803      68.281
  O       -2.611    -133.708      69.220
  C       -3.332    -134.566      67.089
  O       -4.582    -135.226      67.357
  C       -3.538    -133.063      67.150
  O       -4.659    -132.687      66.385
  C       -3.650    -132.880      68.659
  N       -5.727    -129.091      71.364
  C       -6.080    -130.384      71.204
  N       -5.466    -131.336      70.472
  C       -4.363    -130.841      69.886
  C       -3.878    -129.547      69.952
  C       -4.617    -128.642      70.732
  N       -4.275    -127.317      70.879
  N       -2.731    -129.419      69.190
  C       -2.528    -130.616      68.679
  N       -3.486    -131.506      69.074
  O        1.393    -132.365      67.823
  O        1.818    -134.619      66.676
  H       -5.469    -133.133      66.704
  H        2.362    -132.393      67.931
  H       -6.975    -130.696      71.736
  H       -1.717    -130.890      68.017
  H       -4.611    -133.232      69.052
  H       -2.672    -132.531      66.749
  H       -2.927    -134.921      66.138
  H       -2.640    -135.729      68.811
  H       -0.287    -134.772      68.796
  H       -0.685    -135.753      67.359
  H       -4.875    -126.729      71.434
  H       -3.470    -126.958      70.386
  P       -4.971    -136.534      66.509
  C       -6.104    -137.119      64.232
  O       -5.792    -136.123      65.192
  O       -6.109    -137.197      67.422
  O       -3.860    -137.507      66.284
  H       -5.948    -138.155      67.506
  H       -6.649    -136.677      63.424
  H       -6.699    -137.881      64.690
  H       -5.199    -137.550      63.858

 6  7  8  9  10  11  12  13  14  15  25  28  32  33  34  35 0
 6-311+G(2d,p)
 ****
 36  37  40 0
 6-311+G(2d,p)
 ****
 1  2  3  4  5  16  17  18  19  20  21  22  23  24 0
 3-21G
 ****
 26  27  29  30  31  38  39 41  42  43  44  45  46  47  48 0
 3-21G
 ****


