%nproc=1
%NoSave
%Mem=1900MB
#P OB98/GEN NMR

erre ene a

0 1
  C     -585.194     120.798    -539.937
  O     -583.795     120.834    -540.126
  H     -585.507     121.716    -539.437
  H     -585.473     119.944    -539.312
  H     -585.707     120.734    -540.903
  P     -583.077     119.572    -540.812
  C     -583.161     117.018    -540.428
  O     -583.799     118.269    -540.205
  C     -584.184     115.881    -540.321
  O     -584.539     115.646    -538.951
  C     -585.491     116.147    -541.073
  O     -585.343     115.859    -542.457
  C     -586.407     115.152    -540.368
  O     -586.147     113.824    -540.855
  C     -585.945     115.284    -538.908
  N     -590.462     116.805    -537.151
  C     -590.147     115.792    -538.038
  N     -591.196     115.110    -538.564
  N     -588.926     115.486    -538.405
  C     -588.000     116.296    -537.855
  C     -588.176     117.336    -536.972
  C     -589.530     117.622    -536.525
  O     -589.842     118.493    -535.718
  N     -586.998     117.994    -536.707
  C     -586.097     117.313    -537.384
  N     -586.649     116.277    -538.111
  O     -581.582     119.531    -540.719
  O     -583.591     119.603    -542.325
  H     -585.180     113.684    -540.797
  H     -582.976     120.102    -542.896
  H     -591.423     117.002    -536.915
  H     -585.031     117.520    -537.390
  H     -586.021     114.334    -538.365
  H     -587.469     115.368    -540.543
  H     -592.158     115.399    -538.436
  H     -585.854     117.162    -540.896
  H     -590.995     114.414    -539.263
  H     -583.700     114.967    -540.698
  H     -582.376     116.901    -539.672
  H     -582.694     117.004    -541.421
  P     -586.495     116.230    -543.517
  C     -588.636     115.004    -544.286
  O     -587.656     115.151    -543.276
  O     -586.029     116.349    -544.928
  O     -587.155     117.570    -542.931
  H     -586.669     118.389    -543.203
  H     -589.342     114.255    -543.992
  H     -588.164     114.710    -545.200
  H     -589.143     115.935    -544.429

 6  7  8  9  10  11  12  13  14  15  26  29  33  34 0
 6-311+G(2d,p)
 ****
 36  38  39  40  41 0
 6-311+G(2d,p)
 ****
 1  2  3  4  5  16  17  18  19  20  21  22  23  24  25 0
 3-21G
 ****
 27  28  30  31  32  35  37  42  43  44  45  46  47 0
 3-21G
 ****
 48  49 0
 3-21G
 ****


