%nproc=1
%NoSave
%Mem=1900MB
#P OB98/GEN NMR

erre ene a

0 1
  C       53.843      25.094     -90.318
  O       53.404      25.730     -89.135
  H       54.900      25.326     -90.469
  H       53.276      25.457     -91.180
  H       53.727      24.011     -90.225
  P       51.854      25.561     -88.761
  C       51.752      23.180     -87.779
  O       51.854      24.570     -87.496
  C       52.323      22.358     -86.623
  O       53.717      22.721     -86.442
  C       51.608      22.597     -85.289
  O       51.564      21.371     -84.556
  C       52.526      23.573     -84.574
  O       52.356      23.541     -83.160
  C       53.894      23.107     -85.069
  N       57.484      25.044     -82.022
  C       56.770      23.899     -81.966
  N       55.846      23.448     -82.839
  C       55.730      24.289     -83.884
  C       56.388      25.489     -84.080
  C       57.300      25.870     -83.080
  N       58.006      27.050     -83.109
  N       55.963      26.085     -85.251
  C       55.072      25.252     -85.758
  N       54.885      24.163     -84.954
  O       50.959      25.156     -89.884
  O       51.518      26.974     -88.091
  H       52.623      22.655     -82.836
  H       52.204      27.238     -87.448
  H       56.960      23.266     -81.102
  H       54.529      25.401     -86.686
  H       54.273      22.242     -84.509
  H       52.319      24.594     -84.913
  H       50.600      22.994     -85.407
  H       52.304      21.297     -86.900
  H       52.295      22.942     -88.700
  H       58.640      27.243     -82.351
  H       57.889      27.678     -83.890
  H       50.693      22.943     -87.929
  P       50.145      20.679     -84.280
  C       49.723      18.913     -86.108
  O       50.204      19.158     -84.794
  O       48.950      21.449     -84.731
  O       50.143      20.500     -82.685
  H       49.257      20.727     -82.340
  H       49.814      17.871     -86.333
  H       50.298      19.481     -86.810
  H       48.695      19.203     -86.171

 6  7  8  9  10  11  12  13  14  15  25  28  32  33  34  35 0
 6-311+G(2d,p)
 ****
 36  39  40 0
 6-311+G(2d,p)
 ****
 1  2  3  4  5  16  17  18  19  20  21  22  23  24 0
 3-21G
 ****
 26  27  29  30  31  37  38  41  42  43  44  45  46  47 0
 3-21G
 ****
 48 0
 3-21G
 ****


