%nproc=1
%NoSave
%Mem=1900MB
#P OB98/GEN NMR

erre ene a

0 1
  C      144.918     322.364    -196.281
  O      145.529     323.022    -195.188
  H      144.697     321.335    -195.994
  H      145.599     322.356    -197.138
  H      143.982     322.863    -196.553
  P      145.771     324.602    -195.339
  C      143.399     325.427    -194.572
  O      144.328     325.236    -195.626
  C      143.044     326.911    -194.422
  O      142.264     327.320    -195.577
  C      142.227     327.226    -193.170
  O      142.627     328.510    -192.680
  C      140.804     327.308    -193.690
  O      139.962     328.086    -192.841
  C      141.034     327.894    -195.095
  N      139.919     327.620    -196.000
  C      138.759     328.376    -195.817
  O      138.697     329.212    -194.916
  N      137.676     328.137    -196.624
  C      137.722     327.181    -197.501
  N      136.612     326.979    -198.255
  C      138.914     326.330    -197.703
  C      139.966     326.613    -196.934
  O      146.512     324.684    -196.755
  O      146.527     325.224    -194.207
  H      139.173     328.362    -193.356
  H      146.105     324.129    -197.437
  H      138.903     325.542    -198.439
  H      140.885     326.043    -197.021
  H      141.170     328.984    -195.040
  H      140.373     326.306    -193.767
  H      142.348     326.479    -192.382
  H      143.974     327.492    -194.444
  H      135.811     327.571    -198.069
  H      143.811     325.058    -193.627
  H      136.513     326.235    -198.928
  H      142.501     324.846    -194.802
  P      142.831     328.728    -191.103
  C      145.183     327.669    -190.905
  O      143.809     327.592    -190.537
  O      141.580     328.951    -190.317
  O      143.758     330.038    -191.050
  H      143.438     330.600    -190.318
  H      145.717     326.855    -190.461
  H      145.593     328.595    -190.560
  H      145.271     327.615    -191.970

 6  7  8  9  10  11  12  13  14  15  16  26  30  31  32  33  35 0
 6-311+G(2d,p)
 ****
 37  38 0
 6-311+G(2d,p)
 ****
 1  2  3  4  5  17  18  19  20  21  22  23  24  25 0
 3-21G
 ****
 27  28  29  34  36  39  40  41  42  43  44  45  46 0
 3-21G
 ****


