%nproc=1
%NoSave
%Mem=1900MB
#P OB98/GEN NMR

erre ene a

0 1
  C      370.576    1043.764     485.976
  O      370.828    1044.130     487.327
  H      371.505    1043.405     485.532
  H      370.228    1044.631     485.419
  H      369.827    1042.962     485.931
  P      369.549    1044.506     488.223
  C      370.515    1046.791     489.081
  O      370.107    1045.464     489.383
  C      371.996    1046.979     489.396
  O      372.191    1046.936     490.834
  C      372.901    1045.890     488.787
  O      374.126    1046.500     488.372
  C      373.165    1044.942     489.945
  O      374.360    1044.198     489.770
  C      373.142    1045.908     491.147
  N      372.836    1045.235     492.410
  C      373.810    1044.390     492.930
  O      374.865    1044.219     492.318
  N      373.548    1043.718     494.103
  C      372.387    1043.841     494.665
  N      372.189    1043.139     495.818
  C      371.312    1044.691     494.120
  C      371.598    1045.379     493.011
  O      369.267    1043.129     488.974
  O      368.391    1045.041     487.442
  H      374.438    1043.975     488.814
  H      370.066    1042.664     489.275
  H      370.343    1044.758     494.619
  H      370.873    1046.008     492.539
  H      374.143    1046.401     491.250
  H      372.325    1044.236     490.035
  H      372.449    1045.377     487.940
  H      372.314    1047.982     489.070
  H      372.941    1042.553     496.143
  H      369.935    1047.506     489.670
  H      371.307    1043.120     496.312
  H      370.325    1046.976     488.022
  P      374.228    1047.144     486.919
  C      375.940    1045.342     486.213
  O      375.632    1046.728     486.250
  O      373.888    1048.598     486.817
  O      373.180    1046.259     486.062
  H      372.719    1046.864     485.439
  H      376.893    1045.201     485.747
  H      375.189    1044.825     485.653
  H      375.970    1044.957     487.211

 6  7  8  9  10  11  12  13  14  15  16  26  30  31  32  33  35 0
 6-311+G(2d,p)
 ****
 37  38 0
 6-311+G(2d,p)
 ****
 1  2  3  4  5  17  18  19  20  21  22  23  24  25 0
 3-21G
 ****
 27  28  29  34  36  39  40  41  42  43  44  45  46 0
 3-21G
 ****


