%nproc=1
%NoSave
%Mem=1900MB
#P OB98/GEN NMR

erre ene a

0 1
  C     -184.829    -245.388    -112.824
  O     -184.865    -243.974    -112.975
  P     -185.559    -243.122    -111.802
  C     -187.847    -243.377    -113.003
  O     -187.101    -243.570    -111.804
  C     -189.144    -244.177    -112.960
  O     -188.843    -245.587    -112.877
  C     -190.033    -243.882    -111.760
  O     -190.806    -242.705    -111.952
  C     -190.915    -245.120    -111.736
  O     -191.983    -244.972    -112.691
  C     -189.946    -246.227    -112.186
  N     -190.366    -250.538    -109.560
  C     -191.090    -250.088    -110.644
  N     -192.052    -250.912    -111.110
  N     -190.898    -248.928    -111.215
  C     -189.879    -248.224    -110.669
  C     -189.087    -248.560    -109.593
  C     -189.344    -249.828    -108.936
  O     -188.776    -250.247    -107.933
  N     -188.150    -247.595    -109.343
  C     -188.346    -246.691    -110.280
  N     -189.410    -247.015    -111.094
  O     -185.604    -241.642    -112.412
  O     -184.856    -243.164    -110.488
  H     -192.469    -244.162    -112.457
  H     -185.628    -240.986    -111.687
  H     -190.542    -251.447    -109.169
  H     -187.753    -245.800    -110.409
  H     -190.420    -246.906    -112.905
  H     -191.381    -245.295    -110.760
  H     -192.159    -251.872    -110.797
  H     -189.445    -243.832    -110.837
  H     -192.570    -250.619    -111.928
  H     -189.685    -244.007    -113.896
  H     -187.249    -243.713    -113.855
  H     -188.060    -242.310    -113.119
  P     -191.238    -241.906    -110.626
  C     -193.799    -242.355    -110.665
  O     -192.542    -242.662    -110.085
  O     -191.799    -240.523    -111.204
  O     -190.136    -241.704    -109.642
  H     -191.714    -239.818    -110.531
  H     -193.706    -242.160    -111.739
  H     -194.220    -241.476    -110.167
  H     -194.472    -243.204    -110.522
  H     -184.343    -245.825    -113.671
  H     -185.828    -245.765    -112.753
  H     -184.289    -245.638    -111.935

 3  4  5  6  7  8  9  10  11  12  23  26  30  31  33  0
 6-311+G(2d,p)
 ****
 35  36  37  38 0
 6-311+G(2d,p)
 ****
 1  2  13  14  15  16  17  18  19  20  21  22  24  25  27  28  29 0
 3-21G
 ****
 32  34  39  40  41  42  43  44  45  46  47  48  49 0
 3-21G
 ****


