%nproc=1
%NoSave
%Mem=1900MB
#P OB98/GEN NMR

erre ene a

0 1
  C     -501.348    -801.176     444.067
  O     -502.301    -800.518     444.880
  H     -501.879    -801.752     443.301
  H     -500.754    -801.864     444.674
  H     -500.694    -800.450     443.577
  P     -501.735    -799.484     445.965
  C     -502.399    -797.449     444.444
  O     -501.390    -798.121     445.184
  C     -502.021    -795.977     444.259
  O     -501.889    -795.311     445.532
  C     -500.667    -795.766     443.602
  O     -500.672    -796.095     442.228
  C     -500.451    -794.288     443.882
  O     -501.196    -793.473     442.971
  C     -501.020    -794.167     445.318
  N     -499.973    -794.087     446.325
  C     -499.611    -792.795     446.733
  O     -500.177    -791.812     446.248
  N     -498.603    -792.650     447.651
  C     -498.022    -793.701     448.142
  N     -497.022    -793.490     449.037
  C     -498.386    -795.080     447.764
  C     -499.358    -795.197     446.856
  O     -500.287    -800.078     446.294
  O     -502.606    -799.272     447.159
  H     -500.981    -792.546     443.186
  H     -499.739    -800.227     445.507
  H     -497.882    -795.925     448.208
  H     -499.684    -796.175     446.522
  H     -501.651    -793.273     445.411
  H     -499.403    -793.998     443.782
  H     -499.892    -796.330     444.132
  H     -502.827    -795.488     443.695
  H     -496.785    -792.531     449.260
  H     -503.372    -797.539     444.932
  H     -496.476    -794.226     449.463
  H     -502.476    -797.940     443.468
  P     -499.312    -796.508     441.484
  C     -498.897    -798.334     443.245
  O     -498.373    -797.179     442.596
  O     -498.664    -795.417     440.697
  O     -499.749    -797.769     440.600
  H     -500.097    -798.523     441.112
  H     -498.188    -798.693     443.962
  H     -499.086    -799.096     442.518
  H     -499.810    -798.080     443.742

 6  7  8  9  10  11  12  13  14  15  16  26  30  31  32  33  35 0
 6-311+G(2d,p)
 ****
 37  38 0
 6-311+G(2d,p)
 ****
 1  2  3  4  5  17  18  19  20  21  22  23  24  25 0
 3-21G
 ****
 27  28  29  34  36  39  40  41  42  43  44  45  46 0
 3-21G
 ****


