%nproc=1
%NoSave
%Mem=1900MB
#P OB98/GEN NMR

erre ene a

0 1
  C      608.042    -412.954    -477.846
  O      608.291    -413.786    -478.974
  P      607.247    -413.717    -480.191
  C      605.128    -414.951    -479.325
  O      606.339    -415.047    -480.057
  C      604.130    -416.020    -479.778
  O      603.865    -415.882    -481.182
  C      604.636    -417.453    -479.595
  O      604.445    -417.924    -478.269
  C      603.719    -418.192    -480.557
  O      602.422    -418.392    -479.942
  C      603.598    -417.208    -481.719
  N      604.226    -417.159    -486.792
  C      603.156    -416.889    -486.014
  N      603.066    -416.929    -484.675
  C      604.221    -417.341    -484.126
  C      605.390    -417.682    -484.795
  C      605.367    -417.559    -486.202
  N      606.471    -417.815    -486.986
  N      606.370    -418.049    -483.895
  C      605.821    -417.930    -482.723
  N      604.521    -417.487    -482.802
  O      608.153    -414.018    -481.471
  O      606.499    -412.427    -480.319
  H      602.253    -417.605    -479.395
  H      607.728    -413.656    -482.275
  H      602.247    -416.597    -486.546
  H      606.314    -418.122    -481.769
  H      602.591    -417.178    -482.144
  H      604.093    -419.182    -480.828
  H      605.678    -417.560    -479.935
  H      603.188    -415.859    -479.228
  H      604.678    -413.957    -479.478
  H      606.436    -417.532    -487.947
  H      607.374    -417.920    -486.528
  H      605.342    -415.061    -478.254
  P      605.762    -418.445    -477.496
  C      605.944    -420.751    -478.677
  O      605.627    -420.043    -477.494
  O      605.466    -418.032    -475.975
  O      607.036    -417.882    -478.010
  H      606.309    -417.924    -475.496
  H      606.121    -421.800    -478.429
  H      606.842    -420.355    -479.151
  H      605.106    -420.694    -479.376
  H      608.811    -413.102    -477.117
  H      607.094    -413.206    -477.419
  H      608.034    -411.929    -478.154

 3  4  5  6  7  8  9  10  11  12  22  25  29  30  31  32 0
 6-311+G(2d,p)
 ****
 33  36  37 0
 6-311+G(2d,p)
 ****
 1  2  13  14  15  16  17  18  19  20  21  23  24  26 0
 3-21G
 ****
 27  28  34  35  38  39  40  41  42  43  44  45  46  47  48 0
 3-21G
 ****


