%nproc=1
%NoSave
%Mem=1900MB
#P OB98/GEN NMR

erre ene a

0 1
  C     1595.178    -327.824      89.003
  O     1594.743    -328.901      88.197
  H     1595.801    -327.152      88.388
  H     1595.779    -328.184      89.834
  H     1594.319    -327.254      89.373
  P     1593.839    -330.019      88.917
  C     1595.822    -330.509      90.517
  O     1594.906    -331.022      89.559
  C     1596.506    -331.632      91.283
  O     1595.517    -332.492      91.891
  C     1597.383    -332.526      90.425
  O     1598.672    -331.941      90.245
  C     1597.465    -333.776      91.294
  O     1598.447    -333.588      92.331
  C     1596.054    -333.833      91.903
  N     1594.514    -338.705      91.258
  C     1595.607    -338.181      91.869
  N     1595.978    -336.894      91.948
  C     1595.083    -336.091      91.332
  C     1593.939    -336.473      90.642
  C     1593.663    -337.860      90.641
  N     1592.556    -338.384      90.020
  N     1593.279    -335.374      90.137
  C     1593.990    -334.346      90.542
  N     1595.109    -334.733      91.226
  O     1592.773    -330.627      88.068
  O     1593.313    -329.199      90.193
  H     1598.616    -334.489      92.709
  H     1594.033    -328.646      90.568
  H     1596.258    -338.897      92.346
  H     1593.717    -333.309      90.374
  H     1596.094    -334.160      92.952
  H     1597.763    -334.663      90.722
  H     1596.924    -332.774      89.465
  H     1597.085    -331.175      92.104
  H     1595.292    -329.832      91.209
  H     1592.526    -339.392      89.879
  H     1591.978    -337.781      89.433
  H     1596.564    -329.897      89.971
  P     1599.109    -331.226      88.862
  C     1599.152    -333.596      87.846
  O     1599.859    -332.364      88.045
  O     1599.806    -329.924      89.038
  O     1597.711    -331.076      88.083
  H     1597.818    -330.416      87.348
  H     1599.764    -334.272      87.286
  H     1598.247    -333.405      87.308
  H     1598.918    -334.030      88.795

 6  7  8  9  10  11  12  13  14  15  25  28  32  33  34  35 0
 6-311+G(2d,p)
 ****
 36  39  40 0
 6-311+G(2d,p)
 ****
 1  2  3  4  5  16  17  18  19  20  21  22  23  24 0
 3-21G
 ****
 26  27  29  30  31  37  38  41  42  43  44  45  46  47 0
 3-21G
 ****
 48 0
 3-21G
 ****


