%nproc=1
%NoSave
%Mem=1900MB
#P OB98/GEN NMR

erre ene a

0 1
  C     -123.815     431.982      60.253
  O     -123.231     433.196      59.808
  P     -121.988     433.207      58.786
  C     -123.853     433.354      56.987
  O     -122.611     432.782      57.359
  C     -123.637     434.544      56.047
  O     -122.876     434.087      54.899
  C     -124.934     435.183      55.519
  O     -124.696     436.586      55.394
  C     -125.096     434.540      54.151
  O     -125.914     435.306      53.281
  C     -123.628     434.425      53.714
  N     -123.430     433.422      52.662
  C     -122.959     433.865      51.425
  O     -122.736     435.064      51.220
  N     -122.738     432.942      50.429
  C     -123.053     431.696      50.627
  N     -122.760     430.810      49.640
  C     -123.660     431.206      51.879
  C     -123.798     432.109      52.850
  O     -120.814     432.402      59.216
  O     -121.678     434.759      58.557
  H     -125.909     434.876      52.398
  H     -121.079     435.135      59.256
  H     -123.931     430.159      51.990
  H     -124.211     431.836      53.812
  H     -123.255     435.401      53.369
  H     -125.550     433.548      54.266
  H     -125.783     435.016      56.186
  H     -123.028     435.289      56.573
  H     -122.197     431.148      48.869
  H     -124.359     433.708      57.897
  H     -122.674     429.819      49.835
  H     -124.486     432.590      56.517
  P     -125.927     437.594      55.621
  C     -125.062     438.154      58.002
  O     -126.150     437.750      57.200
  O     -127.178     436.675      55.191
  O     -125.919     438.850      54.807
  H     -127.910     437.250      54.897
  H     -125.397     438.216      59.042
  H     -124.691     439.134      57.696
  H     -124.251     437.417      57.948
  H     -124.621     432.198      60.922
  H     -123.077     431.396      60.761
  H     -124.187     431.436      59.412

 3  4  5  6  7  8  9  10  11  12  13  23  27  28  29  30  32 0
 6-311+G(2d,p)
 ****
 34  35 0
 6-311+G(2d,p)
 ****
 1  2  14  15  16  17  18  19  20  21  22  24  25  26 0
 3-21G
 ****
 31  33  36  37  38  39  40  41  42  43  44  45  46 0
 3-21G
 ****


