%nproc=1
%NoSave
%Mem=1900MB
#P OB98/GEN NMR

erre ene a

0 1
  C      492.983      87.286    -719.824
  O      494.208      86.636    -719.539
  H      492.197      86.541    -720.000
  H      492.703      87.900    -718.968
  H      493.089      87.930    -720.702
  P      494.775      85.662    -720.692
  C      492.907      83.908    -720.314
  O      493.525      84.802    -721.227
  C      491.783      83.140    -721.003
  O      491.511      81.939    -720.230
  C      490.459      83.939    -721.131
  O      489.972      83.886    -722.479
  C      489.497      83.191    -720.231
  O      488.155      83.198    -720.734
  C      490.085      81.780    -720.201
  N      487.674      77.586    -718.558
  C      488.253      77.878    -719.750
  N      488.975      78.971    -720.089
  C      489.082      79.811    -719.044
  C      488.562      79.641    -717.768
  C      487.817      78.476    -717.534
  N      487.173      78.214    -716.353
  N      488.884      80.734    -716.956
  C      489.542      81.549    -717.746
  N      489.672      81.052    -719.019
  O      495.645      84.597    -719.861
  O      495.589      86.348    -721.732
  H      487.980      84.109    -721.058
  H      496.572      84.654    -720.167
  H      488.134      77.130    -720.518
  H      489.897      82.540    -717.466
  H      489.796      81.193    -721.089
  H      489.501      83.645    -719.238
  H      490.572      84.986    -720.812
  H      492.133      82.819    -721.999
  H      492.489      84.483    -719.468
  H      486.562      77.417    -716.312
  H      487.185      78.919    -715.630
  H      493.667      83.220    -719.925
  P      490.173      85.230    -723.345
  C      487.765      86.165    -722.965
  O      489.169      86.351    -722.767
  O      489.534      84.843    -724.771
  O      491.589      85.658    -723.493
  H      490.194      84.965    -725.484
  H      487.232      86.984    -722.530
  H      487.457      85.252    -722.500
  H      487.556      86.120    -724.013

 6  7  8  9  10  11  12  13  14  15  25  28  32  33  34  35 0
 6-311+G(2d,p)
 ****
 36  39  40 0
 6-311+G(2d,p)
 ****
 1  2  3  4  5  16  17  18  19  20  21  22  23  24 0
 3-21G
 ****
 26  27  29  30  31  37  38  41  42  43  44  45  46  47  48 0
 3-21G
 ****


