%nproc=1
%NoSave
%Mem=1900MB
#P OB98/GEN NMR

erre ene a

0 1
  C     -205.078    -371.148     -15.696
  O     -205.552    -369.918     -16.211
  H     -205.133    -371.924     -16.466
  H     -204.038    -371.027     -15.390
  H     -205.673    -371.444     -14.825
  P     -207.061    -369.893     -16.759
  C     -209.353    -370.545     -15.731
  O     -208.021    -370.111     -15.483
  C     -210.067    -370.822     -14.406
  O     -209.535    -372.055     -13.851
  C     -209.906    -369.719     -13.346
  O     -211.186    -369.227     -12.944
  C     -209.260    -370.416     -12.163
  O     -209.791    -370.003     -10.899
  C     -209.538    -371.895     -12.426
  N     -208.106    -374.082      -8.044
  C     -209.307    -373.624      -8.466
  N     -209.648    -373.152      -9.683
  C     -208.596    -373.199     -10.522
  C     -207.321    -373.658     -10.249
  C     -207.084    -374.098      -8.935
  N     -205.841    -374.509      -8.486
  N     -206.506    -373.541     -11.358
  C     -207.266    -372.981     -12.275
  N     -208.532    -372.741     -11.814
  O     -207.182    -371.276     -17.559
  O     -207.406    -368.725     -17.617
  H     -209.671    -369.036     -10.847
  H     -207.586    -371.117     -18.434
  H     -210.104    -373.634      -7.721
  H     -206.944    -372.693     -13.274
  H     -210.523    -372.205     -12.051
  H     -208.186    -370.214     -12.164
  H     -209.285    -368.883     -13.698
  H     -211.127    -370.993     -14.611
  H     -209.337    -371.469     -16.318
  H     -205.739    -374.693      -7.498
  H     -205.048    -374.421      -9.110
  H     -209.883    -369.777     -16.303
  P     -211.683    -367.856     -13.621
  C     -212.459    -367.120     -16.004
  O     -212.088    -368.190     -15.138
  O     -210.321    -367.022     -13.781
  O     -212.696    -367.115     -12.820
  H     -210.515    -366.067     -13.776
  H     -212.698    -367.510     -16.971
  H     -211.645    -366.431     -16.088
  H     -213.313    -366.616     -15.602

 6  7  8  9  10  11  12  13  14  15  25  28  32  33  34  35 0
 6-311+G(2d,p)
 ****
 36  39  40 0
 6-311+G(2d,p)
 ****
 1  2  3  4  5  16  17  18  19  20  21  22  23  24 0
 3-21G
 ****
 26  27  29  30  31  37  38  41  42  43  44  45  46  47  48 0
 3-21G
 ****


