%nproc=1
%NoSave
%Mem=1900MB
#P OB98/GEN NMR

erre ene a

0 1
  C      699.785    -714.295    -401.764
  O      700.530    -715.500    -401.786
  H      699.740    -713.896    -402.783
  H      700.271    -713.560    -401.121
  H      698.769    -714.491    -401.414
  P      700.749    -716.229    -400.376
  C      698.739    -717.476    -399.351
  O      699.710    -717.452    -400.393
  C      698.029    -718.827    -399.313
  O      697.223    -718.976    -400.506
  C      699.003    -720.015    -399.255
  O      698.468    -721.031    -398.408
  C      699.022    -720.524    -400.690
  O      699.373    -721.896    -400.775
  C      697.602    -720.202    -401.149
  N      695.031    -721.634    -405.330
  C      694.809    -721.830    -404.006
  N      695.526    -721.392    -402.965
  C      696.575    -720.657    -403.373
  C      696.941    -720.374    -404.682
  C      696.111    -720.909    -405.694
  N      696.360    -720.738    -407.040
  N      698.094    -719.612    -404.703
  C      698.411    -719.432    -403.443
  N      697.526    -720.050    -402.600
  O      700.690    -715.349    -399.172
  O      702.160    -716.968    -400.606
  H      700.235    -722.034    -400.321
  H      702.190    -717.391    -401.479
  H      693.919    -722.412    -403.766
  H      699.267    -718.880    -403.084
  H      696.890    -720.987    -400.875
  H      699.755    -719.952    -401.272
  H      699.998    -719.728    -398.914
  H      697.346    -718.850    -398.458
  H      697.991    -716.692    -399.521
  H      695.717    -721.133    -407.702
  H      697.148    -720.166    -407.339
  H      699.245    -717.272    -398.407
  P      699.188    -721.296    -396.991
  C      699.327    -719.923    -394.812
  O      698.497    -720.356    -395.891
  O      700.674    -721.287    -397.004
  O      698.626    -722.738    -396.598
  H      699.336    -723.244    -396.160
  H      698.757    -719.306    -394.149
  H      700.152    -719.362    -395.199
  H      699.694    -720.776    -394.280

 6  7  8  9  10  11  12  13  14  15  25  28  32  33  34  35 0
 6-311+G(2d,p)
 ****
 36  39  40 0
 6-311+G(2d,p)
 ****
 1  2  3  4  5  16  17  18  19  20  21  22  23  24 0
 3-21G
 ****
 26  27  29  30  31  37  38  41  42  43  44  45  46  47 0
 3-21G
 ****
 48 0
 3-21G
 ****


