%nproc=1
%NoSave
%Mem=1900MB
#P OB98/GEN NMR

erre ene a

0 1
  C     -102.708     241.007      65.349
  O     -102.387     239.672      65.688
  P     -100.872     239.227      65.952
  C      -99.870     240.748      64.149
  O     -100.056     239.408      64.584
  C     -100.101     240.883      62.642
  O      -99.996     242.280      62.263
  C      -99.107     240.087      61.782
  O      -99.840     239.564      60.666
  C      -98.123     241.146      61.326
  O      -97.424     240.765      60.148
  C      -99.053     242.354      61.175
  N      -98.332     243.617      61.180
  C      -98.133     244.239      59.945
  O      -98.447     243.662      58.903
  N      -97.574     245.494      59.925
  C      -97.083     245.992      61.020
  N      -96.601     247.263      60.970
  C      -97.050     245.250      62.296
  C      -97.722     244.100      62.318
  O     -100.710     237.891      66.599
  O     -100.277     240.387      66.884
  H      -99.883     239.985      67.682
  H      -96.692     241.399      59.995
  H      -96.519     245.651      63.147
  H      -97.781     243.494      63.214
  H      -99.629     242.282      60.241
  H      -97.385     241.326      62.117
  H      -98.642     239.260      62.328
  H     -101.127     240.563      62.427
  H      -96.676     247.756      60.090
  H      -98.841     241.041      64.377
  H      -96.498     247.837      61.807
  H     -100.539     241.416      64.703
  P      -99.718     237.994      60.341
  C      -98.138     238.649      58.385
  O      -99.213     237.843      58.827
  O     -101.263     237.569      60.224
  O      -99.037     237.150      61.370
  H     -101.346     236.618      60.421
  H      -97.978     238.462      57.322
  H      -97.224     238.393      58.928
  H      -98.368     239.710      58.526
  H     -103.766     241.097      65.215
  H     -102.210     241.274      64.441
  H     -102.391     241.661      66.135

 3  4  5  6  7  8  9  10  11  12  13  24  27  28  29  30  32 0
 6-311+G(2d,p)
 ****
 34  35 0
 6-311+G(2d,p)
 ****
 1  2  14  15  16  17  18  19  20  21  22  23  25  26 0
 3-21G
 ****
 31  33  36  37  38  39  40  41  42  43  44  45  46 0
 3-21G
 ****


