%nproc=1
%NoSave
%Mem=1900MB
#P OB98/GEN NMR

erre ene a

0 1
  C     -247.646     -83.069    -179.146
  O     -248.937     -83.224    -179.708
  H     -247.420     -81.998    -179.083
  H     -246.898     -83.547    -179.787
  H     -247.601     -83.492    -178.140
  P     -249.627     -84.670    -179.664
  C     -250.677     -86.260    -181.411
  O     -250.227     -84.939    -181.130
  C     -250.515     -86.584    -182.894
  O     -251.402     -85.715    -183.668
  C     -249.079     -86.356    -183.438
  O     -248.855     -87.329    -184.476
  C     -249.197     -84.959    -184.010
  O     -248.113     -84.640    -184.845
  C     -250.582     -85.052    -184.654
  N     -251.138     -83.765    -185.035
  C     -250.986     -83.368    -186.362
  O     -250.436     -84.052    -187.227
  N     -251.491     -82.125    -186.665
  C     -252.107     -81.274    -185.804
  O     -252.562     -80.181    -186.140
  C     -252.211     -81.736    -184.408
  C     -251.734     -82.940    -184.098
  O     -250.589     -84.898    -178.539
  O     -248.391     -85.680    -179.592
  H     -248.239     -85.951    -178.663
  H     -247.290     -84.563    -184.325
  H     -251.389     -81.824    -187.626
  H     -252.676     -81.073    -183.697
  H     -251.790     -83.313    -183.071
  H     -250.554     -85.709    -185.533
  H     -249.196     -84.219    -183.194
  H     -248.308     -86.467    -182.660
  H     -250.844     -87.620    -183.077
  H     -251.734     -86.326    -181.129
  H     -250.102     -86.974    -180.807
  P     -247.424     -87.974    -184.793
  C     -245.586     -87.835    -186.604
  O     -246.834     -87.322    -186.138
  O     -247.426     -89.466    -184.805
  O     -246.449     -87.415    -183.642
  H     -245.801     -88.123    -183.410
  H     -245.302     -87.323    -187.500
  H     -245.684     -88.881    -186.806
  H     -244.837     -87.685    -185.855

 6  7  8  9  10  11  12  13  14  15  16  27  31  32  33  34  35 0
 6-311+G(2d,p)
 ****
 36  37 0
 6-311+G(2d,p)
 ****
 1  2  3  4  5  17  18  19  20  21  22  23  24  25 0
 3-21G
 ****
 26  28  29  30  38  39  40  41  42  43  44  45 0
 3-21G
 ****


