%nproc=1
%NoSave
%Mem=1900MB
#P OB98/GEN NMR

erre ene a

0 1
  C      158.823     591.085    -162.002
  O      158.280     591.863    -160.928
  P      157.355     591.070    -159.874
  C      158.723     591.555    -157.721
  O      158.292     590.583    -158.662
  C      159.155     590.917    -156.397
  O      158.113     590.026    -155.935
  C      160.446     590.095    -156.474
  O      161.182     590.277    -155.255
  C      159.951     588.662    -156.493
  O      160.942     587.741    -156.049
  C      158.732     588.780    -155.581
  N      155.605     585.665    -153.108
  C      156.307     586.760    -152.649
  N      156.172     587.053    -151.335
  N      157.070     587.505    -153.404
  C      157.082     587.115    -154.697
  C      156.428     586.056    -155.283
  C      155.620     585.214    -154.426
  O      155.015     584.202    -154.764
  N      156.692     585.979    -156.629
  C      157.512     586.985    -156.859
  N      157.787     587.698    -155.717
  O      156.995     589.720    -160.654
  O      156.129     591.814    -159.473
  H      160.693     586.863    -156.389
  H      156.026     589.616    -160.709
  H      155.047     585.113    -152.481
  H      157.953     587.226    -157.814
  H      159.030     588.838    -154.526
  H      159.665     588.389    -157.514
  H      155.551     586.561    -150.714
  H      161.083     590.331    -157.334
  H      156.642     587.879    -150.988
  H      159.258     591.713    -155.651
  H      157.907     592.258    -157.528
  H      159.553     592.121    -158.159
  P      162.027     591.635    -155.125
  C      161.192     592.110    -152.708
  O      161.247     592.537    -154.056
  O      161.749     592.377    -156.517
  O      163.481     591.429    -154.873
  H      162.497     592.964    -156.741
  H      161.878     591.280    -152.509
  H      160.172     591.788    -152.475
  H      161.457     592.949    -152.060
  H      159.416     591.713    -162.633
  H      158.025     590.658    -162.572
  H      159.434     590.303    -161.602

 3  4  5  6  7  8  9  10  11  12  23  26  30  31  33  0
 6-311+G(2d,p)
 ****
 35  36  37  38 0
 6-311+G(2d,p)
 ****
 1  2  13  14  15  16  17  18  19  20  21  22  24  25  27  28  29 0
 3-21G
 ****
 32  34  39  40  41  42  43  44  45  46  47  48  49 0
 3-21G
 ****


