%nproc=1
%NoSave
%Mem=1900MB
#P OB98/GEN NMR

erre ene a

0 1
  C       67.908       2.407      66.164
  O       66.934       2.878      67.086
  P       66.880       2.209      68.542
  C       65.353       0.215      67.897
  O       66.641       0.635      68.325
  C       65.232      -1.307      67.926
  O       63.915      -1.686      67.442
  C       66.261      -2.045      67.063
  O       66.558      -3.283      67.719
  C       65.494      -2.332      65.785
  O       66.071      -3.398      65.038
  C       64.109      -2.621      66.358
  N       60.022      -4.801      64.198
  C       60.839      -5.212      65.189
  N       61.908      -4.574      65.711
  C       62.101      -3.394      65.099
  C       61.371      -2.860      64.051
  C       60.279      -3.616      63.595
  N       59.437      -3.195      62.592
  N       61.891      -1.639      63.672
  C       62.915      -1.441      64.475
  N       63.065      -2.462      65.370
  O       65.478       2.725      69.114
  O       68.005       2.569      69.450
  H       66.936      -3.101      64.698
  H       65.629       3.352      69.849
  H       60.600      -6.177      65.627
  H       63.573      -0.584      64.449
  H       64.035      -3.635      66.770
  H       65.485      -1.439      65.150
  H       67.181      -1.479      66.884
  H       65.299      -1.639      68.969
  H       65.196       0.559      66.871
  H       58.600      -3.726      62.416
  H       59.505      -2.236      62.269
  H       64.590       0.668      68.536
  P       68.077      -3.790      67.661
  C       67.802      -5.369      65.623
  O       68.373      -4.183      66.138
  O       68.024      -5.202      68.415
  O       69.056      -2.861      68.299
  H       68.889      -5.396      68.820
  H       67.577      -5.221      64.563
  H       66.881      -5.640      66.146
  H       68.523      -6.186      65.722
  H       67.819       2.947      65.244
  H       67.752       1.364      65.982
  H       68.886       2.556      66.572

 3  4  5  6  7  8  9  10  11  12  22  25  29  30  31  32 0
 6-311+G(2d,p)
 ****
 33  36  37 0
 6-311+G(2d,p)
 ****
 1  2  13  14  15  16  17  18  19  20  21  23  24  26 0
 3-21G
 ****
 27  28  34  35  38  39  40  41  42  43  44  45  46  47  48 0
 3-21G
 ****


