%nproc=1
%NoSave
%Mem=1900MB
#P OB98/GEN NMR

erre ene a

0 1
  C      -58.119    -190.915     420.772
  O      -57.231    -191.585     421.666
  P      -55.662    -191.507     421.306
  C      -54.793    -190.273     423.411
  O      -54.839    -191.484     422.677
  C      -54.758    -190.555     424.920
  O      -56.067    -190.849     425.458
  C      -53.878    -191.739     425.287
  O      -52.515    -191.357     425.302
  C      -54.411    -192.101     426.678
  O      -53.809    -191.279     427.698
  C      -55.910    -191.779     426.551
  N      -57.881    -195.971     428.627
  C      -56.926    -195.103     429.118
  N      -56.445    -195.379     430.348
  N      -56.484    -194.056     428.466
  C      -57.055    -193.908     427.246
  C      -58.031    -194.678     426.660
  C      -58.512    -195.834     427.394
  O      -59.377    -196.617     427.012
  N      -58.408    -194.171     425.440
  C      -57.577    -193.176     425.236
  N      -56.778    -192.927     426.326
  O      -55.496    -190.014     420.728
  O      -55.228    -192.535     420.308
  H      -54.159    -191.547     428.567
  H      -55.326    -190.050     419.768
  H      -58.183    -196.760     429.162
  H      -57.520    -192.586     424.333
  H      -56.294    -191.283     427.450
  H      -54.190    -193.132     426.937
  H      -56.744    -196.160     430.909
  H      -54.053    -192.574     424.596
  H      -55.749    -194.752     430.731
  H      -54.386    -189.643     425.417
  H      -55.664    -189.660     423.170
  H      -53.908    -189.712     423.104
  P      -51.407    -192.513     425.371
  C      -49.941    -191.533     423.465
  O      -50.035    -191.895     424.824
  O      -51.865    -193.522     424.213
  O      -51.328    -193.204     426.695
  H      -51.801    -194.435     424.541
  H      -49.225    -190.709     423.366
  H      -50.909    -191.222     423.065
  H      -49.573    -192.385     422.893
  H      -59.126    -191.036     421.112
  H      -58.021    -191.333     419.792
  H      -57.876    -189.873     420.741

 3  4  5  6  7  8  9  10  11  12  23  26  30  31 0
 6-311+G(2d,p)
 ****
 33  35  36  37  38 0
 6-311+G(2d,p)
 ****
 1  2  13  14  15  16  17  18  19  20  21  22  24  25 0
 3-21G
 ****
 27  28  29  32  34  39  40  41  42  43  44  45  46  47  48  49 0
 3-21G
 ****


