%nproc=1
%NoSave
%Mem=1900MB
#P OB98/GEN NMR

erre ene a

0 1
  C       92.660     -46.703       3.649
  O       91.489     -45.950       3.917
  P       90.067     -46.686       3.801
  C       89.694     -45.712       1.419
  O       89.734     -46.872       2.239
  C       88.631     -45.855       0.330
  O       89.022     -46.901      -0.600
  C       87.243     -46.216       0.861
  O       86.239     -45.601       0.042
  C       87.155     -47.716       0.638
  O       85.803     -48.159       0.568
  C       87.942     -47.853      -0.670
  N       86.846     -52.780      -0.353
  C       85.995     -51.689      -0.323
  N       84.690     -51.944      -0.095
  N       86.392     -50.457      -0.514
  C       87.734     -50.349      -0.722
  C       88.670     -51.354      -0.788
  C       88.215     -52.716      -0.567
  O       88.920     -53.725      -0.556
  N       89.921     -50.860      -1.058
  C       89.751     -49.554      -1.112
  N       88.450     -49.191      -0.882
  O       89.042     -45.554       4.271
  O       89.931     -47.918       4.638
  H       85.816     -49.133       0.623
  H       88.719     -45.751       5.171
  H       86.492     -53.710      -0.190
  H       90.537     -48.832      -1.287
  H       87.324     -47.585      -1.535
  H       87.648     -48.250       1.459
  H       84.329     -52.867       0.122
  H       87.071     -45.947       1.909
  H       84.057     -51.161      -0.025
  H       88.592     -44.918      -0.247
  H       90.672     -45.571       0.954
  H       89.482     -44.834       2.036
  P       84.995     -44.941       0.821
  C       83.225     -46.712       0.088
  O       83.987     -46.147       1.143
  O       84.247     -44.109      -0.322
  O       85.388     -44.093       1.986
  H       83.743     -43.371       0.071
  H       83.523     -47.758      -0.036
  H       83.374     -46.177      -0.860
  H       82.167     -46.667       0.354
  H       93.521     -46.078       3.767
  H       92.624     -47.074       2.646
  H       92.720     -47.525       4.331

 3  4  5  6  7  8  9  10  11  12  23  26  30  31 0
 6-311+G(2d,p)
 ****
 33  35  36  37  38 0
 6-311+G(2d,p)
 ****
 1  2  13  14  15  16  17  18  19  20  21  22  24  25 0
 3-21G
 ****
 27  28  29  32  34  39  40  41  42  43  44  45  46  47  48  49 0
 3-21G
 ****


