%nproc=1
%NoSave
%Mem=1900MB
#P OB98/GEN NMR

erre ene a

0 1
  C     -287.792      66.648     -53.896
  O     -287.162      65.382     -53.938
  H     -288.816      66.515     -53.543
  H     -287.820      67.102     -54.889
  H     -287.264      67.305     -53.201
  P     -285.745      65.267     -54.685
  C     -286.902      64.647     -56.905
  O     -286.055      65.573     -56.234
  C     -286.252      64.124     -58.184
  O     -286.261      65.135     -59.216
  C     -284.787      63.743     -58.025
  O     -284.552      62.629     -57.195
  C     -284.314      63.707     -59.472
  O     -284.625      62.472     -60.115
  C     -285.148      64.854     -60.094
  N     -284.343      66.047     -60.349
  C     -284.404      66.558     -61.639
  O     -285.063      66.046     -62.545
  N     -283.640      67.672     -61.871
  C     -282.813      68.281     -60.972
  O     -282.142      69.266     -61.252
  C     -282.765      67.669     -59.633
  C     -283.522      66.600     -59.382
  O     -284.994      63.988     -54.458
  O     -284.953      66.572     -54.209
  H     -284.055      62.413     -60.905
  H     -283.985      66.492     -54.401
  H     -283.684      68.069     -62.798
  H     -282.110      68.120     -58.900
  H     -283.505      66.133     -58.399
  H     -285.583      64.533     -61.050
  H     -283.234      63.852     -59.557
  H     -284.264      64.585     -57.552
  H     -286.844      63.276     -58.549
  H     -287.832      65.172     -57.164
  H     -287.140      63.815     -56.234
  P     -283.184      62.372     -56.419
  C     -281.992      61.024     -58.319
  O     -282.012      62.189     -57.501
  O     -283.231      61.423     -55.270
  O     -282.862      63.843     -55.825
  H     -282.420      63.712     -54.964
  H     -281.150      61.065     -58.978
  H     -282.893      60.977     -58.894
  H     -281.918      60.155     -57.700

 6  7  8  9  10  11  12  13  14  15  16  26  31  32  33  34  35 0
 6-311+G(2d,p)
 ****
 36  37 0
 6-311+G(2d,p)
 ****
 1  2  3  4  5  17  18  19  20  21  22  23  24  25 0
 3-21G
 ****
 27  28  29  30  38  39  40  41  42  43  44  45 0
 3-21G
 ****


