%nproc=1
%NoSave
%Mem=1900MB
#P OB98/GEN NMR

erre ene a

0 1
  C      520.151    -387.615     493.656
  O      521.360    -387.806     492.952
  P      522.771    -387.609     493.697
  C      523.657    -389.397     492.046
  O      523.872    -388.113     492.633
  C      524.627    -389.635     490.886
  O      525.986    -389.477     491.330
  C      524.533    -391.029     490.284
  O      523.395    -391.141     489.446
  C      525.871    -391.126     489.566
  O      525.817    -390.485     488.275
  C      526.819    -390.353     490.515
  N      527.628    -391.244     491.339
  C      529.016    -391.188     491.100
  O      529.462    -390.439     490.233
  N      529.845    -392.012     491.834
  C      529.330    -392.837     492.697
  N      530.198    -393.634     493.372
  C      527.873    -392.956     492.938
  C      527.093    -392.140     492.232
  O      522.871    -388.223     495.060
  O      522.971    -386.015     493.690
  H      525.060    -390.890     487.813
  H      522.387    -385.584     494.349
  H      527.502    -393.665     493.660
  H      526.020    -392.164     492.345
  H      527.484    -389.700     489.947
  H      526.176    -392.173     489.392
  H      524.498    -391.787     491.090
  H      524.428    -388.876     490.112
  H      531.185    -393.540     493.156
  H      522.630    -389.435     491.670
  H      529.903    -394.336     494.044
  H      523.765    -390.162     492.808
  P      522.198    -392.103     489.853
  C      521.145    -391.520     487.593
  O      521.441    -392.555     488.509
  O      521.304    -391.600     490.943
  O      522.928    -393.462     490.306
  H      522.518    -393.783     491.118
  H      520.947    -391.964     486.605
  H      521.978    -390.823     487.495
  H      520.248    -390.982     487.919
  H      519.324    -387.789     492.999
  H      520.108    -386.612     494.025
  H      520.105    -388.299     494.477

 3  4  5  6  7  8  9  10  11  12  13  23  27  28  29  30  32 0
 6-311+G(2d,p)
 ****
 34  35 0
 6-311+G(2d,p)
 ****
 1  2  14  15  16  17  18  19  20  21  22  24  25  26 0
 3-21G
 ****
 31  33  36  37  38  39  40  41  42  43  44  45  46 0
 3-21G
 ****


