%nproc=1
%NoSave
%Mem=1900MB
#P OB98/GEN NMR

erre ene a

0 1
  C      -80.729    -644.947      -8.417
  O      -80.461    -645.592      -9.650
  P      -80.672    -644.817     -11.042
  C      -78.655    -645.998     -12.127
  O      -80.052    -645.784     -12.170
  C      -78.283    -647.231     -12.946
  O      -78.714    -648.458     -12.295
  C      -78.946    -647.296     -14.320
  O      -78.576    -646.315     -15.262
  C      -78.712    -648.742     -14.698
  O      -77.393    -648.948     -15.224
  C      -78.868    -649.468     -13.324
  N      -80.160    -650.157     -13.213
  C      -80.280    -651.308     -13.996
  O      -79.391    -651.744     -14.738
  N      -81.499    -651.954     -13.927
  C      -82.564    -651.544     -13.188
  O      -83.635    -652.142     -13.206
  C      -82.379    -650.309     -12.402
  C      -81.186    -649.686     -12.445
  O      -80.161    -643.428     -11.074
  O      -82.251    -644.956     -11.302
  H      -76.766    -648.706     -14.529
  H      -82.575    -645.877     -11.365
  H      -81.600    -652.779     -14.493
  H      -83.213    -649.973     -11.808
  H      -81.028    -648.791     -11.879
  H      -78.053    -650.196     -13.173
  H      -79.420    -649.092     -15.465
  H      -80.030    -647.172     -14.164
  H      -77.186    -647.286     -13.023
  H      -78.361    -646.173     -11.074
  H      -78.125    -645.116     -12.484
  P      -79.515    -645.870     -16.477
  C      -78.657    -643.432     -16.564
  O      -78.811    -644.656     -17.251
  O      -80.993    -645.736     -16.191
  O      -79.302    -647.086     -17.523
  H      -80.114    -647.221     -18.051
  H      -78.191    -642.693     -17.243
  H      -77.986    -643.549     -15.705
  H      -79.616    -643.035     -16.242
  H      -80.530    -645.622      -7.611
  H      -81.756    -644.648      -8.387
  H      -80.104    -644.084      -8.323

 3  4  5  6  7  8  9  10  11  12  13  23  28  29  30  31  32 0
 6-311+G(2d,p)
 ****
 33  34 0
 6-311+G(2d,p)
 ****
 1  2  14  15  16  17  18  19  20  21  22  24  25  26  27 0
 3-21G
 ****
 35  36  37  38  39  40  41  42  43  44  45 0
 3-21G
 ****


