%nproc=1
%NoSave
%Mem=1900MB
#P OB98/GEN NMR

erre ene a

0 1
  C      255.561     146.524     269.007
  O      256.440     145.409     269.234
  P      256.415     144.072     268.355
  C      257.563     143.184     266.204
  O      257.462     144.251     267.143
  C      258.514     143.553     265.063
  O      258.044     144.747     264.384
  C      259.937     143.905     265.485
  O      260.683     142.761     265.867
  C      260.454     144.605     264.231
  O      260.938     143.658     263.263
  C      259.187     145.303     263.697
  N      259.233     146.748     263.835
  C      258.543     147.499     262.883
  O      257.993     146.939     261.928
  N      258.497     148.866     263.021
  C      259.174     149.435     263.968
  N      259.085     150.797     264.067
  C      260.032     148.695     264.913
  C      260.012     147.367     264.794
  O      255.048     143.658     267.910
  O      257.082     142.943     269.271
  H      256.752     142.065     269.012
  H      261.169     144.168     262.465
  H      260.613     149.216     265.664
  H      260.603     146.742     265.460
  H      259.036     145.052     262.638
  H      261.283     145.291     264.455
  H      259.901     144.623     266.316
  H      258.522     142.725     264.344
  H      258.477     151.273     263.411
  H      256.569     142.988     265.790
  H      259.552     151.336     264.784
  H      257.907     142.280     266.724
  P      260.665     142.363     267.422
  C      259.013     141.127     269.002
  O      259.209     141.785     267.761
  O      260.694     143.777     268.168
  O      261.807     141.499     267.853
  H      261.262     143.720     268.963
  H      257.960     141.233     269.285
  H      259.638     141.559     269.786
  H      259.239     140.067     268.890
  H      255.770     147.294     269.720
  H      254.545     146.205     269.114
  H      255.714     146.903     268.018

 3  4  5  6  7  8  9  10  11  12  13  24  27  28  29  30  32 0
 6-311+G(2d,p)
 ****
 34  35 0
 6-311+G(2d,p)
 ****
 1  2  14  15  16  17  18  19  20  21  22  23  25  26 0
 3-21G
 ****
 31  33  36  37  38  39  40  41  42  43  44  45  46 0
 3-21G
 ****


