%nproc=1
%NoSave
%Mem=1900MB
#P OB98/GEN NMR

erre ene a

0 1
  C      284.908    -287.225     234.963
  O      285.369    -287.252     233.606
  P      284.406    -287.931     232.513
  C      285.691    -290.204     232.282
  O      284.537    -289.511     232.744
  C      285.816    -291.542     233.003
  O      284.738    -292.433     232.630
  C      287.097    -292.302     232.682
  O      288.216    -291.727     233.337
  C      286.730    -293.702     233.159
  O      286.880    -293.803     234.584
  C      285.234    -293.786     232.779
  N      284.990    -294.581     231.586
  C      285.027    -295.961     231.758
  O      285.274    -296.500     232.840
  N      284.792    -296.711     230.640
  C      284.556    -296.227     229.386
  O      284.341    -296.947     228.421
  C      284.578    -294.763     229.256
  C      284.789    -294.015     230.341
  O      285.221    -287.652     231.170
  O      283.018    -287.380     232.541
  H      286.186    -287.694     231.294
  H      286.490    -294.661     234.843
  H      284.804    -297.715     230.745
  H      284.418    -294.343     228.271
  H      284.812    -292.936     230.265
  H      284.660    -294.228     233.605
  H      287.359    -294.477     232.707
  H      287.264    -292.310     231.599
  H      285.749    -291.356     234.082
  H      286.585    -289.605     232.473
  H      285.607    -290.341     231.201
  P      289.176    -290.794     232.442
  C      291.281    -292.327     232.678
  O      290.304    -291.754     231.835
  O      289.940    -289.959     233.575
  O      288.440    -289.954     231.451
  H      290.235    -290.513     234.320
  H      291.722    -293.188     232.173
  H      290.849    -292.661     233.626
  H      292.071    -291.594     232.878
  H      285.641    -286.748     235.579
  H      284.750    -288.226     235.306
  H      283.989    -286.680     235.017

 3  4  5  6  7  8  9  10  11  12  13  24  28  29  30  31  32 0
 6-311+G(2d,p)
 ****
 33  34 0
 6-311+G(2d,p)
 ****
 1  2  14  15  16  17  18  19  20  21  22  23  25  26  27 0
 3-21G
 ****
 35  36  37  38  39  40  41  42  43  44  45 0
 3-21G
 ****


