%nproc=1
%NoSave
%Mem=1900MB
#P OB98/GEN NMR

erre ene a

0 1
  C     -305.067     487.545     469.811
  O     -305.609     486.473     469.067
  H     -305.884     488.209     470.110
  H     -304.364     488.113     469.197
  H     -304.566     487.181     470.709
  P     -304.650     485.264     468.643
  C     -304.983     482.856     467.782
  O     -305.589     483.987     468.402
  C     -305.976     481.695     467.738
  O     -306.278     481.253     469.080
  C     -307.318     482.062     467.114
  O     -307.230     482.152     465.705
  C     -308.189     480.927     467.633
  O     -308.032     479.748     466.833
  C     -307.617     480.707     469.052
  N     -308.458     481.311     470.082
  C     -309.479     480.518     470.588
  O     -309.693     479.366     470.219
  N     -310.309     481.122     471.499
  C     -310.291     482.449     471.830
  O     -311.198     482.995     472.453
  C     -309.150     483.222     471.320
  C     -308.306     482.632     470.473
  O     -303.476     485.026     469.537
  O     -304.185     485.650     467.160
  H     -303.279     486.012     467.193
  H     -308.361     479.985     465.942
  H     -311.083     480.567     471.836
  H     -309.057     484.258     471.621
  H     -307.473     483.187     470.054
  H     -307.524     479.631     469.263
  H     -309.243     481.201     467.624
  H     -307.676     483.005     467.537
  H     -305.505     480.861     467.201
  H     -304.106     482.562     468.374
  H     -304.655     483.133     466.777
  P     -308.462     482.714     464.851
  C     -308.834     484.033     462.675
  O     -307.879     483.573     463.629
  O     -309.523     483.396     465.651
  O     -309.055     481.417     464.122
  H     -310.018     481.384     464.268
  H     -308.334     484.591     461.911
  H     -309.552     484.660     463.162
  H     -309.333     483.194     462.236

 6  7  8  9  10  11  12  13  14  15  16  27  31  32  33  34  35 0
 6-311+G(2d,p)
 ****
 36  37 0
 6-311+G(2d,p)
 ****
 1  2  3  4  5  17  18  19  20  21  22  23  24  25 0
 3-21G
 ****
 26  28  29  30  38  39  40  41  42  43  44  45 0
 3-21G
 ****


