%nproc=1
%NoSave
%Mem=1900MB
#P OB98/GEN NMR

erre ene a

0 1
  C      840.386    -891.480     151.272
  O      840.024    -892.480     152.211
  P      838.791    -892.160     153.207
  C      837.313    -894.060     152.195
  O      837.466    -892.680     152.434
  C      836.270    -894.650     153.147
  O      835.044    -893.890     153.095
  C      835.900    -896.090     152.850
  O      836.849    -896.990     153.380
  C      834.534    -896.200     153.511
  O      834.663    -896.420     154.935
  C      833.940    -894.810     153.231
  N      829.217    -895.250     151.463
  C      829.715    -895.530     152.734
  N      828.843    -895.960     153.656
  N      830.996    -895.410     153.038
  C      831.747    -895.000     151.996
  C      831.365    -894.710     150.698
  C      829.966    -894.780     150.391
  O      829.445    -894.460     149.343
  N      832.433    -894.300     149.935
  C      833.453    -894.370     150.759
  N      833.107    -894.760     152.037
  O      838.679    -890.560     153.106
  O      838.950    -892.650     154.592
  H      833.783    -896.550     155.323
  H      839.120    -890.150     153.874
  H      828.225    -895.340     151.282
  H      834.486    -894.140     150.509
  H      833.318    -894.450     154.060
  H      833.936    -897.040     153.127
  H      827.857    -896.100     153.473
  H      835.782    -896.240     151.765
  H      829.208    -896.160     154.574
  H      836.669    -894.560     154.170
  H      838.279    -894.580     152.340
  H      837.003    -894.200     151.159
  P      836.649    -898.560     153.109
  C      838.988    -899.280     152.183
  O      837.622    -898.990     151.902
  O      835.193    -898.620     152.449
  O      836.763    -899.430     154.320
  H      834.739    -899.450     152.763
  H      839.335    -900.000     151.437
  H      839.086    -899.710     153.191
  H      839.584    -898.370     152.119
  H      841.210    -891.825     150.684
  H      840.667    -890.588     151.792
  H      839.553    -891.273     150.633

 3  4  5  6  7  8  9  10  11  12  23  26  30  31 0
 6-311+G(2d,p)
 ****
 33  35  36  37  38 0
 6-311+G(2d,p)
 ****
 1  2  13  14  15  16  17  18  19  20  21  22  24  25 0
 3-21G
 ****
 27  28  29  32  34  39  40  41  42  43  44  45  46  47  48  49 0
 3-21G
 ****


