%nproc=1
%NoSave
%Mem=1900MB
#P OB98/GEN NMR

erre ene a

0 1
  C       66.810     -59.718     200.236
  O       66.780     -60.220     201.558
  P       68.127     -60.624     202.320
  C       70.178     -59.412     203.261
  O       69.079     -59.336     202.365
  C       71.480     -58.980     202.586
  O       71.845     -59.957     201.575
  C       71.408     -57.606     201.907
  O       72.670     -56.962     202.116
  C       71.227     -57.956     200.442
  O       71.626     -56.901     199.578
  C       72.067     -59.233     200.348
  N       71.726     -60.040     199.187
  C       72.434     -59.785     198.009
  O       73.206     -58.829     197.948
  N       72.232     -60.614     196.932
  C       71.275     -61.490     196.971
  N       71.154     -62.335     195.911
  C       70.344     -61.613     198.111
  C       70.650     -60.898     199.191
  O       68.790     -61.866     201.820
  O       67.679     -60.794     203.850
  H       67.966     -61.671     204.171
  H       72.580     -56.724     199.715
  H       69.488     -62.269     198.045
  H       70.045     -60.942     200.088
  H       73.137     -58.989     200.306
  H       70.170     -58.177     200.245
  H       70.610     -56.975     202.308
  H       72.275     -58.984     203.342
  H       71.836     -62.247     195.167
  H       70.277     -60.447     203.593
  H       70.668     -63.227     195.983
  H       69.982     -58.796     204.147
  P       72.725     -55.357     202.067
  C       71.755     -53.439     203.521
  O       71.676     -54.798     203.140
  O       71.978     -55.051     200.676
  O       74.083     -54.735     202.057
  H       72.281     -54.190     200.336
  H       71.015     -53.252     204.302
  H       71.535     -52.791     202.669
  H       72.748     -53.206     203.915
  H       65.812     -59.510     199.911
  H       67.252     -60.446     199.588
  H       67.389     -58.818     200.209

 3  4  5  6  7  8  9  10  11  12  13  24  27  28  29  30  32 0
 6-311+G(2d,p)
 ****
 34  35 0
 6-311+G(2d,p)
 ****
 1  2  14  15  16  17  18  19  20  21  22  23  25  26 0
 3-21G
 ****
 31  33  36  37  38  39  40  41  42  43  44  45  46 0
 3-21G
 ****


