%nproc=1
%NoSave
%Mem=1900MB
#P OB98/GEN NMR

erre ene a

0 1
  C     -126.051    -189.716     548.930
  O     -126.986    -190.277     549.829
  P     -126.514    -191.308     550.961
  C     -127.446    -193.688     550.604
  O     -126.445    -192.738     550.232
  C     -126.844    -195.091     550.710
  O     -126.522    -195.607     549.404
  C     -125.552    -195.154     551.515
  O     -125.822    -195.091     552.900
  C     -124.975    -196.483     551.036
  O     -125.560    -197.587     551.745
  C     -125.399    -196.501     549.553
  N     -124.303    -196.151     548.657
  C     -123.379    -197.168     548.393
  O     -123.496    -198.271     548.931
  N     -122.316    -196.892     547.567
  C     -122.177    -195.704     547.070
  N     -121.099    -195.490     546.269
  C     -123.112    -194.595     547.349
  C     -124.142    -194.885     548.142
  O     -127.299    -191.271     552.227
  O     -124.965    -190.940     551.161
  H     -125.160    -197.578     552.636
  H     -124.857    -190.095     551.662
  H     -122.952    -193.618     546.919
  H     -124.877    -194.133     548.399
  H     -125.763    -197.499     549.269
  H     -123.894    -196.540     551.188
  H     -124.888    -194.337     551.210
  H     -127.601    -195.749     551.159
  H     -120.467    -196.267     546.127
  H     -128.223    -193.687     549.837
  H     -120.877    -194.595     545.859
  H     -127.896    -193.384     551.552
  P     -125.011    -194.070     553.828
  C     -122.964    -195.526     554.357
  O     -123.449    -194.398     553.660
  O     -125.493    -193.962     555.237
  O     -125.170    -192.670     553.066
  H     -125.370    -191.974     553.718
  H     -122.010    -195.830     553.914
  H     -123.667    -196.359     554.290
  H     -122.800    -195.268     555.405
  H     -126.556    -189.057     548.255
  H     -125.575    -190.498     548.376
  H     -125.314    -189.168     549.478

 3  4  5  6  7  8  9  10  11  12  13  23  27  28  29  30  32 0
 6-311+G(2d,p)
 ****
 34  35 0
 6-311+G(2d,p)
 ****
 1  2  14  15  16  17  18  19  20  21  22  24  25  26 0
 3-21G
 ****
 31  33  36  37  38  39  40  41  42  43  44  45  46 0
 3-21G
 ****


