%nproc=1
%NoSave
%Mem=1900MB
#P OB98/GEN NMR

erre ene a

0 1
  C     -101.138     248.691    -232.232
  O     -101.478     247.538    -231.488
  H     -100.195     249.094    -231.847
  H     -101.915     249.451    -232.118
  H     -101.007     248.449    -233.291
  P     -102.666     246.598    -232.009
  C     -101.701     244.458    -230.932
  O     -102.784     245.380    -230.969
  C     -101.981     243.335    -229.926
  O     -101.970     243.907    -228.576
  C     -103.344     242.639    -230.121
  O     -103.190     241.272    -229.718
  C     -104.207     243.407    -229.129
  O     -105.423     242.755    -228.881
  C     -103.219     243.527    -227.964
  N     -103.628     244.493    -226.951
  C     -103.661     244.058    -225.628
  O     -103.348     242.921    -225.270
  N     -104.085     244.981    -224.709
  C     -104.476     246.261    -224.978
  O     -104.824     247.051    -224.112
  C     -104.445     246.652    -226.397
  C     -104.031     245.766    -227.305
  O     -102.592     246.194    -233.444
  O     -103.987     247.456    -231.707
  H     -104.269     247.919    -232.519
  H     -105.963     243.259    -228.234
  H     -104.115     244.680    -223.744
  H     -104.769     247.657    -226.645
  H     -103.997     246.021    -228.360
  H     -103.060     242.553    -227.488
  H     -104.452     244.398    -229.528
  H     -103.703     242.681    -231.152
  H     -101.159     242.610    -229.967
  H     -100.798     245.007    -230.643
  H     -101.557     244.035    -231.933
  P     -102.369     240.185    -230.572
  C     -100.754     239.622    -228.640
  O     -101.697     239.117    -229.575
  O     -101.394     240.793    -231.532
  O     -103.474     239.336    -231.359
  H     -103.130     239.091    -232.240
  H     -100.382     238.819    -228.039
  H     -101.228     240.347    -228.012
  H      -99.942     240.080    -229.165

 6  7  8  9  10  11  12  13  14  15  16  27  31  32  33  34  35 0
 6-311+G(2d,p)
 ****
 36  37 0
 6-311+G(2d,p)
 ****
 1  2  3  4  5  17  18  19  20  21  22  23  24  25 0
 3-21G
 ****
 26  28  29  30  38  39  40  41  42  43  44  45 0
 3-21G
 ****


