%nproc=1
%NoSave
%Mem=1900MB
#P OB98/GEN NMR

erre ene a

0 1
  C      -26.862    -627.465    1164.625
  O      -25.639    -626.848    1164.261
  H      -27.669    -626.735    1164.474
  H      -26.838    -627.755    1165.673
  H      -27.054    -628.342    1163.989
  P      -24.303    -627.744    1164.213
  C      -22.953    -625.573    1164.659
  O      -23.182    -626.937    1165.038
  C      -22.272    -624.828    1165.795
  O      -23.127    -624.854    1166.974
  C      -20.944    -625.425    1166.251
  O      -19.916    -625.125    1165.342
  C      -20.795    -624.808    1167.633
  O      -20.260    -623.463    1167.528
  C      -22.265    -624.773    1168.127
  N      -22.524    -625.853    1169.065
  C      -22.740    -625.506    1170.387
  O      -22.728    -624.331    1170.808
  N      -22.919    -626.548    1171.280
  C      -22.776    -627.858    1170.976
  O      -22.704    -628.735    1171.839
  C      -22.619    -628.187    1169.571
  C      -22.482    -627.193    1168.677
  O      -23.888    -628.212    1162.865
  O      -24.646    -628.962    1165.196
  H      -24.868    -629.745    1164.643
  H      -19.325    -623.568    1167.269
  H      -23.043    -626.285    1172.248
  H      -22.573    -629.242    1169.280
  H      -22.329    -627.413    1167.629
  H      -22.468    -623.804    1168.614
  H      -20.130    -625.369    1168.264
  H      -21.049    -626.514    1166.364
  H      -22.143    -623.766    1165.485
  H      -23.919    -625.111    1164.423
  H      -22.328    -625.564    1163.759
  P      -19.283    -626.297    1164.414
  C      -17.472    -624.628    1163.625
  O      -17.746    -625.937    1164.151
  O      -20.066    -626.661    1163.188
  O      -19.182    -627.562    1165.414
  H      -19.568    -628.336    1164.969
  H      -16.417    -624.510    1163.494
  H      -17.832    -623.887    1164.308
  H      -17.964    -624.513    1162.682

 6  7  8  9  10  11  12  13  14  15  16  27  31  32  33  34  35 0
 6-311+G(2d,p)
 ****
 36  37 0
 6-311+G(2d,p)
 ****
 1  2  3  4  5  17  18  19  20  21  22  23  24  25 0
 3-21G
 ****
 26  28  29  30  38  39  40  41  42  43  44  45 0
 3-21G
 ****


