%nproc=1
%NoSave
%Mem=1900MB
#P OB98/GEN NMR

erre ene a

0 1
  C     -106.399      54.676     173.705
  O     -106.616      54.036     174.948
  H     -106.285      53.912     172.932
  H     -105.489      55.281     173.743
  H     -107.255      55.310     173.456
  P     -106.696      54.990     176.240
  C     -105.123      56.881     177.113
  O     -105.344      55.856     176.154
  C     -103.662      57.321     177.079
  O     -102.791      56.222     177.435
  C     -103.173      57.795     175.710
  O     -103.597      59.109     175.386
  C     -101.672      57.720     175.931
  O     -101.251      58.825     176.754
  C     -101.553      56.381     176.688
  N     -101.341      55.234     175.793
  C     -100.015      54.855     175.564
  O      -99.084      55.464     176.088
  N      -99.768      53.808     174.705
  C     -100.754      53.179     174.145
  N     -100.445      52.153     173.305
  C     -102.168      53.537     174.370
  C     -102.386      54.560     175.196
  O     -106.397      53.992     177.457
  O     -107.947      55.790     176.389
  H     -101.752      58.757     177.588
  H     -106.276      54.508     178.293
  H     -102.955      52.992     173.868
  H     -103.400      54.881     175.409
  H     -100.731      56.411     177.415
  H     -101.096      57.776     175.005
  H     -103.451      57.088     174.917
  H     -103.532      58.104     177.840
  H      -99.469      51.970     173.124
  H     -105.375      56.485     178.104
  H     -101.130      51.704     172.708
  H     -105.764      57.742     176.899
  P     -103.865      59.434     173.835
  C     -102.381      59.669     171.703
  O     -102.431      59.507     173.119
  O     -104.348      60.956     173.858
  O     -104.868      58.537     173.168
  H     -105.010      61.123     173.164
  H     -101.360      59.699     171.383
  H     -102.867      60.583     171.431
  H     -102.878      58.847     171.232

 6  7  8  9  10  11  12  13  14  15  16  26  30  31  32  33  35 0
 6-311+G(2d,p)
 ****
 37  38 0
 6-311+G(2d,p)
 ****
 1  2  3  4  5  17  18  19  20  21  22  23  24  25 0
 3-21G
 ****
 27  28  29  34  36  39  40  41  42  43  44  45  46 0
 3-21G
 ****


