%nproc=1
%NoSave
%Mem=1900MB
#P OB98/GEN NMR

erre ene a

0 1
  C      267.589     -20.546    -122.025
  O      267.380     -20.300    -123.413
  P      267.761     -18.860    -124.001
  C      270.194     -19.445    -124.860
  O      269.348     -18.687    -124.026
  C      271.626     -18.895    -124.764
  O      272.122     -19.022    -123.414
  C      272.614     -19.621    -125.673
  O      272.633     -19.076    -126.980
  C      273.918     -19.443    -124.923
  O      274.440     -18.118    -125.132
  C      273.451     -19.616    -123.458
  N      273.374     -20.987    -122.909
  C      274.464     -21.522    -122.228
  O      275.524     -20.929    -122.045
  N      274.302     -22.790    -121.737
  C      273.138     -23.499    -121.701
  O      273.037     -24.608    -121.194
  C      271.979     -22.829    -122.299
  C      272.147     -21.636    -122.874
  O      267.283     -17.847    -122.862
  O      267.136     -18.549    -125.325
  H      274.490     -17.977    -126.093
  H      266.563     -17.279    -123.192
  H      275.105     -23.221    -121.304
  H      271.023     -23.335    -122.251
  H      271.294     -21.132    -123.321
  H      274.090     -19.040    -122.779
  H      274.680     -20.129    -125.287
  H      272.385     -20.690    -125.701
  H      271.604     -17.828    -125.017
  H      269.851     -19.414    -125.896
  H      270.171     -20.495    -124.550
  P      271.386     -19.303    -127.957
  C      270.868     -16.798    -128.143
  O      270.404     -18.059    -127.701
  O      270.749     -20.650    -127.905
  O      271.984     -18.978    -129.409
  H      272.261     -19.805    -129.865
  H      270.053     -16.074    -128.057
  H      271.186     -16.851    -129.188
  H      271.702     -16.469    -127.517
  H      267.288     -21.546    -121.791
  H      267.010     -19.855    -121.449
  H      268.626     -20.423    -121.793

 3  4  5  6  7  8  9  10  11  12  13  23  28  29  30  31  32 0
 6-311+G(2d,p)
 ****
 33  34 0
 6-311+G(2d,p)
 ****
 1  2  14  15  16  17  18  19  20  21  22  24  25  26  27 0
 3-21G
 ****
 35  36  37  38  39  40  41  42  43  44  45 0
 3-21G
 ****


