%nproc=1
%NoSave
%Mem=1900MB
#P OB98/GEN NMR

erre ene a

0 1
  C     -737.294     669.502    -303.129
  O     -737.939     668.568    -302.294
  H     -737.302     670.495    -302.669
  H     -736.257     669.190    -303.271
  H     -737.784     669.539    -304.111
  P     -739.458     668.907    -301.884
  C     -738.466     669.332    -299.523
  O     -739.377     669.768    -300.526
  C     -739.199     669.123    -298.206
  O     -739.498     670.395    -297.592
  C     -740.545     668.409    -298.330
  O     -740.388     667.003    -298.479
  C     -741.175     668.771    -296.990
  O     -740.664     667.898    -295.966
  C     -740.677     670.202    -296.761
  N     -743.749     673.888    -294.926
  C     -742.887     673.048    -294.314
  N     -742.114     672.086    -294.857
  C     -742.281     672.046    -296.199
  C     -743.121     672.844    -296.957
  C     -743.886     673.798    -296.271
  N     -744.779     674.643    -296.906
  N     -743.008     672.524    -298.297
  C     -742.119     671.551    -298.339
  N     -741.655     671.226    -297.095
  O     -740.040     667.499    -301.392
  O     -740.298     669.496    -302.968
  H     -739.696     668.043    -295.933
  H     -740.979     667.433    -301.650
  H     -742.806     673.160    -293.228
  H     -741.781     671.068    -299.250
  H     -740.367     670.361    -295.720
  H     -742.265     668.666    -296.990
  H     -741.147     668.835    -299.139
  H     -738.528     668.572    -297.527
  H     -737.690     670.095    -299.384
  H     -745.139     675.427    -296.393
  H     -744.861     674.574    -297.915
  H     -737.995     668.403    -299.851
  P     -741.579     666.199    -299.186
  C     -742.654     665.829    -296.856
  O     -742.827     666.294    -298.184
  O     -741.115     664.668    -299.045
  O     -741.838     666.577    -300.609
  H     -741.525     664.133    -299.759
  H     -743.566     665.956    -296.312
  H     -741.875     666.387    -296.381
  H     -742.391     664.792    -296.873

 6  7  8  9  10  11  12  13  14  15  25  28  32  33  34  35 0
 6-311+G(2d,p)
 ****
 36  39  40 0
 6-311+G(2d,p)
 ****
 1  2  3  4  5  16  17  18  19  20  21  22  23  24 0
 3-21G
 ****
 26  27  29  30  31  37  38  41  42  43  44  45  46  47  48 0
 3-21G
 ****


