%nproc=1
%NoSave
%Mem=1900MB
#P OB98/GEN NMR

erre ene a

0 1
  C      550.325      56.694     -74.661
  O      550.093      57.949     -75.266
  H      551.129      56.798     -73.932
  H      550.633      55.972     -75.422
  H      549.427      56.335     -74.151
  P      548.759      58.104     -76.142
  C      549.936      58.292     -78.442
  O      549.085      57.524     -77.606
  C      549.107      59.095     -79.447
  O      550.004      59.663     -80.440
  C      548.057      58.260     -80.191
  O      546.875      59.052     -80.359
  C      548.699      58.008     -81.541
  O      547.738      57.764     -82.567
  C      549.506      59.283     -81.738
  N      550.643      58.503     -86.584
  C      549.427      58.766     -85.984
  N      548.348      58.821     -86.795
  N      549.278      58.955     -84.699
  C      550.450      58.909     -84.017
  C      551.716      58.650     -84.492
  C      551.858      58.415     -85.915
  O      552.903      58.157     -86.502
  N      552.639      58.655     -83.480
  C      551.934      58.912     -82.392
  N      550.606      59.080     -82.667
  O      548.660      59.684     -76.377
  O      547.515      57.568     -75.514
  H      548.208      57.801     -83.426
  H      547.862      60.034     -75.939
  H      550.692      58.350     -87.579
  H      552.333      58.977     -81.390
  H      548.900      60.108     -82.128
  H      549.358      57.130     -81.479
  H      548.394      58.732     -87.797
  H      547.802      57.333     -79.673
  H      547.449      59.048     -86.380
  H      548.640      59.938     -78.921
  H      550.609      57.618     -78.982
  H      550.533      58.973     -77.825
  P      545.644      58.736     -79.375
  C      544.215      57.329     -81.014
  O      544.987      57.341     -79.823
  O      544.548      59.824     -79.802
  O      545.986      58.847     -77.927
  H      544.473      60.506     -79.114
  H      543.842      56.341     -81.188
  H      544.827      57.629     -81.839
  H      543.394      58.007     -80.914

 6  7  8  9  10  11  12  13  14  15  26  29  33  34 0
 6-311+G(2d,p)
 ****
 36  38  39  40  41 0
 6-311+G(2d,p)
 ****
 1  2  3  4  5  16  17  18  19  20  21  22  23  24  25 0
 3-21G
 ****
 27  28  30  31  32  35  37  42  43  44  45  46  47 0
 3-21G
 ****
 48  49 0
 3-21G
 ****


