%nproc=1
%NoSave
%Mem=1900MB
#P OB98/GEN NMR

erre ene a

0 1
  C     -224.933    -120.550    -198.356
  O     -223.869    -119.672    -198.066
  H     -225.675    -120.467    -197.558
  H     -224.579    -121.584    -198.391
  H     -225.408    -120.281    -199.304
  P     -222.606    -119.618    -199.061
  C     -221.094    -121.162    -197.672
  O     -221.851    -121.031    -198.870
  C     -220.161    -122.372    -197.744
  O     -219.451    -122.364    -199.010
  C     -219.108    -122.412    -196.620
  O     -219.059    -123.723    -196.048
  C     -217.801    -122.121    -197.346
  O     -216.661    -122.627    -196.663
  C     -218.092    -122.742    -198.721
  N     -217.152    -122.286    -199.737
  C     -215.996    -123.057    -199.897
  O     -215.814    -124.059    -199.204
  N     -215.044    -122.639    -200.797
  C     -215.217    -121.530    -201.443
  N     -214.220    -121.162    -202.299
  C     -216.407    -120.670    -201.284
  C     -217.331    -121.104    -200.423
  O     -221.737    -118.413    -198.901
  O     -223.229    -119.750    -200.527
  H     -216.838    -123.563    -196.414
  H     -222.594    -119.376    -201.180
  H     -216.496    -119.754    -201.845
  H     -218.243    -120.545    -200.243
  H     -218.045    -123.841    -198.669
  H     -217.682    -121.034    -197.451
  H     -219.296    -121.685    -195.832
  H     -220.773    -123.286    -197.742
  H     -213.417    -121.776    -202.373
  H     -221.786    -121.262    -196.828
  H     -214.234    -120.308    -202.838
  H     -220.493    -120.256    -197.541
  P     -219.783    -123.900    -194.623
  C     -218.043    -122.935    -192.951
  O     -219.255    -122.733    -193.655
  O     -219.105    -125.228    -194.036
  O     -221.266    -124.037    -194.723
  H     -219.759    -125.956    -194.029
  H     -217.829    -122.073    -192.354
  H     -217.247    -123.092    -193.649
  H     -218.137    -123.793    -192.318

 6  7  8  9  10  11  12  13  14  15  16  26  30  31  32  33  35 0
 6-311+G(2d,p)
 ****
 37  38 0
 6-311+G(2d,p)
 ****
 1  2  3  4  5  17  18  19  20  21  22  23  24  25 0
 3-21G
 ****
 27  28  29  34  36  39  40  41  42  43  44  45  46 0
 3-21G
 ****


