%nproc=1
%NoSave
%Mem=1900MB
#P OB98/GEN NMR

erre ene a

0 1
  C      120.810     235.677    -189.655
  O      121.238     234.650    -190.526
  H      119.916     235.337    -189.125
  H      120.559     236.575    -190.224
  H      121.593     235.906    -188.924
  P      122.510     234.966    -191.451
  C      121.169     235.060    -193.676
  O      122.168     234.394    -192.913
  C      120.477     234.058    -194.604
  O      121.445     233.483    -195.509
  C      119.852     232.868    -193.878
  O      118.612     233.201    -193.283
  C      119.716     231.877    -195.019
  O      118.516     232.105    -195.773
  C      120.973     232.167    -195.867
  N      122.010     231.148    -195.694
  C      121.888     230.025    -196.507
  O      120.982     229.874    -197.324
  N      122.833     229.048    -196.320
  C      123.835     229.077    -195.392
  O      124.607     228.132    -195.220
  C      123.916     230.293    -194.566
  C      123.010     231.251    -194.741
  O      123.622     233.956    -190.897
  O      122.972     236.385    -191.426
  H      124.258     234.437    -190.333
  H      118.460     231.384    -196.427
  H      122.756     228.222    -196.893
  H      124.705     230.343    -193.827
  H      123.034     232.155    -194.137
  H      120.712     232.202    -196.934
  H      119.663     230.848    -194.655
  H      120.557     232.468    -193.135
  H      119.719     234.593    -195.190
  H      121.632     235.844    -194.280
  H      120.444     235.520    -192.993
  P      118.143     232.386    -191.981
  C      115.781     231.844    -193.012
  O      116.534     232.435    -191.963
  O      118.572     233.394    -190.814
  O      118.727     231.015    -191.883
  H      118.468     234.332    -191.056
  H      114.737     231.980    -192.822
  H      116.001     230.798    -193.064
  H      116.038     232.309    -193.941

 6  7  8  9  10  11  12  13  14  15  16  27  31  32  33  34  35 0
 6-311+G(2d,p)
 ****
 36  37 0
 6-311+G(2d,p)
 ****
 1  2  3  4  5  17  18  19  20  21  22  23  24  25 0
 3-21G
 ****
 26  28  29  30  38  39  40  41  42  43  44  45 0
 3-21G
 ****


