%nproc=1
%NoSave
%Mem=1900MB
#P OB98/GEN NMR

erre ene a

0 1
  C     -360.895    -108.118    -100.913
  O     -361.081    -107.444    -102.140
  P     -361.492    -108.230    -103.477
  C     -363.431    -106.634    -104.028
  O     -363.062    -107.959    -103.677
  C     -364.171    -106.599    -105.368
  O     -364.491    -105.224    -105.710
  C     -363.387    -107.198    -106.545
  O     -364.358    -107.801    -107.406
  C     -362.790    -105.967    -107.199
  O     -362.386    -106.201    -108.542
  C     -363.932    -104.958    -107.016
  N     -363.473    -103.581    -107.149
  C     -363.171    -103.144    -108.441
  O     -363.223    -103.928    -109.391
  N     -362.767    -101.845    -108.622
  C     -362.577    -101.085    -107.590
  N     -362.179     -99.806    -107.830
  C     -362.763    -101.545    -106.201
  C     -363.221    -102.787    -106.055
  O     -361.092    -109.666    -103.516
  O     -360.839    -107.354    -104.645
  H     -363.181    -106.453    -109.062
  H     -359.866    -107.526    -104.703
  H     -362.539    -100.892    -105.371
  H     -363.387    -103.211    -105.078
  H     -364.726    -105.134    -107.753
  H     -361.905    -105.645    -106.637
  H     -362.631    -107.924    -106.243
  H     -365.121    -107.132    -105.241
  H     -362.082     -99.527    -108.800
  H     -362.517    -106.039    -104.118
  H     -362.086     -99.111    -107.106
  H     -364.040    -106.191    -103.235
  P     -363.919    -108.773    -108.606
  C     -364.036    -110.911    -107.203
  O     -363.199    -110.039    -107.943
  O     -363.146    -108.112    -109.701
  O     -365.299    -109.378    -109.149
  H     -365.153    -109.776    -110.029
  H     -363.512    -111.858    -107.047
  H     -364.972    -111.104    -107.739
  H     -364.264    -110.463    -106.233
  H     -360.626    -107.412    -100.155
  H     -360.114    -108.842    -101.019
  H     -361.803    -108.611    -100.635

 3  4  5  6  7  8  9  10  11  12  13  23  27  28  29  30  32 0
 6-311+G(2d,p)
 ****
 34  35 0
 6-311+G(2d,p)
 ****
 1  2  14  15  16  17  18  19  20  21  22  24  25  26 0
 3-21G
 ****
 31  33  36  37  38  39  40  41  42  43  44  45  46 0
 3-21G
 ****


