%nproc=1
%NoSave
%Mem=1900MB
#P OB98/GEN NMR

erre ene a

0 1
  C     -244.120     -99.462      65.851
  O     -244.538     -98.167      66.233
  H     -244.928     -99.943      65.292
  H     -243.911    -100.059      66.745
  H     -243.231     -99.415      65.216
  P     -243.414     -97.172      66.792
  C     -244.352     -97.052      69.206
  O     -243.276     -97.452      68.372
  C     -243.913     -95.921      70.136
  O     -242.756     -96.363      70.894
  C     -243.524     -94.631      69.399
  O     -243.973     -93.508      70.163
  C     -242.004     -94.670      69.397
  O     -241.422     -93.370      69.297
  C     -241.718     -95.379      70.719
  N     -236.774     -94.469      70.318
  C     -237.841     -93.592      70.378
  N     -237.549     -92.275      70.310
  N     -239.089     -93.975      70.488
  C     -239.228     -95.323      70.580
  C     -238.253     -96.291      70.530
  C     -236.878     -95.857      70.378
  O     -235.894     -96.585      70.296
  N     -238.797     -97.548      70.623
  C     -240.097     -97.337      70.729
  N     -240.406     -96.003      70.713
  O     -244.130     -95.740      66.726
  O     -242.124     -97.172      66.038
  H     -240.452     -93.490      69.190
  H     -243.664     -95.167      66.087
  H     -235.835     -94.119      70.217
  H     -240.856     -98.108      70.806
  H     -241.748     -94.692      71.578
  H     -241.650     -95.269      68.550
  H     -236.610     -91.908      70.272
  H     -243.935     -94.574      68.388
  H     -238.313     -91.614      70.388
  H     -244.713     -95.733      70.861
  H     -244.675     -97.913      69.806
  H     -245.190     -96.720      68.584
  P     -245.493     -93.038      69.937
  C     -244.771     -90.762      68.930
  O     -245.514     -91.957      68.746
  O     -245.803     -92.162      71.242
  O     -246.462     -94.166      69.794
  H     -246.412     -92.649      71.831
  H     -244.875     -90.141      68.065
  H     -243.738     -91.003      69.074
  H     -245.139     -90.242      69.789

 6  7  8  9  10  11  12  13  14  15  26  29  33  34 0
 6-311+G(2d,p)
 ****
 36  38  39  40  41 0
 6-311+G(2d,p)
 ****
 1  2  3  4  5  16  17  18  19  20  21  22  23  24  25 0
 3-21G
 ****
 27  28  30  31  32  35  37  42  43  44  45  46  47 0
 3-21G
 ****
 48  49 0
 3-21G
 ****


