%nproc=1
%NoSave
%Mem=1900MB
#P OB98/GEN NMR

erre ene a

0 1
  C       61.123      63.060    -125.465
  O       60.346      63.800    -124.548
  P       60.865      64.093    -123.062
  C       61.713      62.645    -121.105
  O       60.970      62.669    -122.319
  C       62.443      61.304    -120.954
  O       63.375      61.153    -122.068
  C       63.251      61.207    -119.644
  O       62.973      60.043    -118.862
  C       64.688      61.343    -120.124
  O       65.647      60.832    -119.220
  C       64.616      60.682    -121.506
  N       65.769      61.007    -122.343
  C       66.993      60.452    -121.981
  O       67.162      59.706    -121.019
  N       68.070      60.832    -122.735
  C       68.067      61.777    -123.717
  O       69.088      62.141    -124.285
  C       66.750      62.359    -124.028
  C       65.675      61.940    -123.358
  O       60.095      65.123    -122.307
  O       62.408      64.466    -123.283
  H       66.526      60.908    -119.639
  H       62.942      63.767    -123.703
  H       68.963      60.437    -122.484
  H       66.719      63.119    -124.796
  H       64.692      62.349    -123.565
  H       64.544      59.595    -121.425
  H       64.901      62.413    -120.244
  H       63.013      62.041    -118.971
  H       61.694      60.510    -121.017
  H       61.024      62.775    -120.267
  H       62.417      63.485    -121.084
  P       63.045      59.970    -117.264
  C       64.871      59.134    -115.611
  O       64.573      59.761    -116.842
  O       62.079      59.027    -116.627
  O       62.744      61.477    -116.808
  H       62.322      61.472    -115.929
  H       65.834      59.509    -115.251
  H       64.952      58.054    -115.767
  H       64.104      59.340    -114.859
  H       60.598      62.979    -126.394
  H       61.304      62.082    -125.071
  H       62.056      63.558    -125.625

 3  4  5  6  7  8  9  10  11  12  13  23  28  29  30  31  32 0
 6-311+G(2d,p)
 ****
 33  34 0
 6-311+G(2d,p)
 ****
 1  2  14  15  16  17  18  19  20  21  22  24  25  26  27 0
 3-21G
 ****
 35  36  37  38  39  40  41  42  43  44  45 0
 3-21G
 ****


