%nproc=1
%NoSave
%Mem=1900MB
#P OB98/GEN NMR

erre ene a

0 1
  C      -63.874      68.663     -29.493
  O      -63.498      69.684     -30.395
  H      -63.056      68.503     -28.784
  H      -64.068      67.726     -30.021
  H      -64.765      68.965     -28.934
  P      -64.420      69.928     -31.686
  C      -62.586      69.761     -33.496
  O      -63.705      69.126     -32.882
  C      -62.132      68.989     -34.738
  O      -61.503      67.751     -34.351
  C      -63.273      68.586     -35.659
  O      -63.884      69.667     -36.329
  C      -62.656      67.451     -36.465
  O      -61.930      67.897     -37.606
  C      -61.684      66.822     -35.438
  N      -62.147      65.521     -34.972
  C      -62.044      64.478     -35.885
  O      -61.615      64.618     -37.031
  N      -62.495      63.261     -35.455
  C      -63.072      63.006     -34.245
  O      -63.495      61.900     -33.934
  C      -63.177      64.154     -33.331
  C      -62.717      65.342     -33.729
  O      -64.719      71.360     -32.013
  O      -65.724      69.050     -31.393
  H      -61.386      67.145     -37.911
  H      -66.473      69.319     -31.977
  H      -62.419      62.491     -36.100
  H      -63.632      63.989     -32.363
  H      -62.785      66.206     -33.072
  H      -60.694      66.682     -35.892
  H      -63.419      66.756     -36.823
  H      -64.059      68.131     -35.045
  H      -61.390      69.596     -35.269
  H      -61.771      69.778     -32.766
  H      -62.846      70.791     -33.760
  P      -65.265      69.539     -37.121
  C      -64.122      70.468     -39.261
  O      -64.938      69.450     -38.692
  O      -66.382      70.425     -36.672
  O      -65.688      68.019     -36.777
  H      -66.662      67.993     -36.718
  H      -63.991      70.278     -40.306
  H      -63.168      70.472     -38.777
  H      -64.594      71.419     -39.128

 6  7  8  9  10  11  12  13  14  15  16  26  31  32  33  34  35 0
 6-311+G(2d,p)
 ****
 36  37 0
 6-311+G(2d,p)
 ****
 1  2  3  4  5  17  18  19  20  21  22  23  24  25 0
 3-21G
 ****
 27  28  29  30  38  39  40  41  42  43  44  45 0
 3-21G
 ****


