%nproc=1
%NoSave
%Mem=1900MB
#P OB98/GEN NMR

erre ene a

0 1
  C       52.968    -340.735      10.278
  O       53.450    -341.995      10.699
  H       52.442    -340.860       9.328
  H       53.809    -340.052      10.126
  H       52.274    -340.317      11.012
  P       53.961    -342.103      12.216
  C       51.659    -342.337      13.391
  O       52.785    -341.512      13.136
  C       51.447    -342.493      14.893
  O       52.479    -343.325      15.465
  C       51.474    -341.182      15.672
  O       50.214    -340.524      15.634
  C       51.784    -341.689      17.069
  O       50.590    -342.251      17.658
  C       52.799    -342.804      16.785
  N       57.147    -342.836      19.394
  C       55.905    -343.333      19.738
  N       55.805    -343.912      20.953
  N       54.853    -343.264      18.964
  C       55.095    -342.635      17.789
  C       56.278    -342.095      17.339
  C       57.436    -342.194      18.198
  O       58.562    -341.779      17.935
  N       56.138    -341.539      16.096
  C       54.865    -341.721      15.803
  N       54.188    -342.378      16.800
  O       55.101    -340.979      12.286
  O       54.491    -343.439      12.615
  H       50.073    -341.508      18.019
  H       55.974    -341.412      12.238
  H       57.921    -342.906      20.031
  H       54.390    -341.404      14.886
  H       52.714    -343.634      17.495
  H       52.124    -340.899      17.740
  H       56.569    -343.980      21.606
  H       52.284    -340.524      15.332
  H       54.905    -344.286      21.223
  H       50.490    -343.011      15.045
  H       51.829    -343.322      12.942
  H       50.774    -341.882      12.934
  P       50.136    -339.004      16.134
  C       50.169    -337.953      13.764
  O       50.842    -338.104      15.007
  O       51.184    -338.977      17.343
  O       48.788    -338.546      16.573
  H       50.713    -338.857      18.191
  H       50.752    -337.333      13.116
  H       49.214    -337.499      13.928
  H       50.034    -338.914      13.312

 6  7  8  9  10  11  12  13  14  15  26  29  33  34 0
 6-311+G(2d,p)
 ****
 36  38  39  40  41 0
 6-311+G(2d,p)
 ****
 1  2  3  4  5  16  17  18  19  20  21  22  23  24  25 0
 3-21G
 ****
 27  28  30  31  32  35  37  42  43  44  45  46  47 0
 3-21G
 ****
 48  49 0
 3-21G
 ****


