%nproc=1
%NoSave
%Mem=1900MB
#P OB98/GEN NMR

erre ene a

0 1
  C      229.100     276.785      52.589
  O      228.499     276.784      53.891
  P      227.634     275.505      54.321
  C      225.446     276.401      53.232
  O      226.404     275.354      53.303
  C      224.505     276.186      52.043
  O      223.713     274.992      52.195
  C      223.503     277.313      51.845
  O      224.077     278.408      51.146
  C      222.455     276.629      50.982
  O      222.898     276.593      49.611
  C      222.428     275.211      51.568
  N      217.408     274.477      52.272
  C      218.141     274.688      51.154
  N      219.471     274.892      51.049
  C      220.054     274.852      52.258
  C      219.437     274.648      53.482
  C      218.048     274.454      53.463
  N      217.308     274.239      54.603
  N      220.360     274.683      54.507
  C      221.517     274.890      53.909
  N      221.382     275.006      52.553
  O      226.930     275.984      55.677
  O      228.444     274.269      54.532
  H      223.748     276.112      49.599
  H      226.842     275.228      56.287
  H      217.587     274.690      50.222
  H      222.472     274.958      54.414
  H      222.302     274.444      50.794
  H      221.495     277.151      50.992
  H      223.061     277.619      52.804
  H      225.121     276.080      51.140
  H      225.951     277.365      53.143
  H      216.317     274.081      54.511
  H      217.782     274.198      55.494
  H      224.886     276.434      54.173
  P      224.474     279.702      52.007
  C      222.028     280.508      51.660
  O      223.094     280.291      52.565
  O      224.924     280.754      50.886
  O      225.545     279.466      53.017
  H      225.600     281.358      51.248
  H      221.101     280.611      52.228
  H      221.923     279.670      50.967
  H      222.205     281.430      51.099
  H      229.641     277.697      52.447
  H      228.337     276.703      51.844
  H      229.771     275.956      52.505

 3  4  5  6  7  8  9  10  11  12  22  25  29  30  31  32 0
 6-311+G(2d,p)
 ****
 33  36  37 0
 6-311+G(2d,p)
 ****
 1  2  13  14  15  16  17  18  19  20  21  23  24  26 0
 3-21G
 ****
 27  28  34  35  38  39  40  41  42  43  44  45  46  47  48 0
 3-21G
 ****


