%nproc=1
%NoSave
%Mem=1900MB
#P OB98/GEN NMR

erre ene a

0 1
  C      -47.448     -47.335      85.217
  O      -47.342     -48.441      84.316
  P      -48.377     -48.496      83.090
  C      -46.852     -47.760      81.098
  O      -47.497     -48.818      81.785
  C      -45.567     -48.252      80.422
  O      -44.736     -48.954      81.395
  C      -45.798     -49.197      79.237
  O      -44.792     -48.890      78.259
  C      -45.547     -50.567      79.838
  O      -45.218     -51.532      78.848
  C      -44.420     -50.241      80.824
  N      -44.258     -51.261      81.856
  C      -44.256     -52.586      81.438
  O      -44.462     -52.919      80.272
  N      -44.058     -53.523      82.416
  C      -43.943     -53.270      83.754
  O      -43.766     -54.149      84.588
  C      -44.066     -51.858      84.149
  C      -44.218     -50.935      83.196
  O      -48.770     -46.956      82.937
  O      -49.521     -49.424      83.335
  H      -48.028     -46.349      83.100
  H      -44.328     -51.333      78.493
  H      -44.021     -54.489      82.129
  H      -44.038     -51.625      85.205
  H      -44.333     -49.891      83.454
  H      -43.466     -50.134      80.292
  H      -46.440     -50.909      80.372
  H      -46.791     -49.089      78.793
  H      -45.002     -47.372      80.090
  H      -46.595     -46.962      81.802
  H      -47.545     -47.329      80.367
  P      -45.267     -48.296      76.840
  C      -44.284     -45.904      76.438
  O      -44.118     -47.300      76.339
  O      -46.421     -47.294      77.330
  O      -45.759     -49.310      75.862
  H      -46.151     -46.738      78.078
  H      -43.317     -45.422      76.272
  H      -44.647     -45.618      77.428
  H      -44.985     -45.557      75.674
  H      -46.703     -47.424      85.980
  H      -48.420     -47.332      85.665
  H      -47.300     -46.422      84.679

 3  4  5  6  7  8  9  10  11  12  13  24  28  29  30  31  32 0
 6-311+G(2d,p)
 ****
 33  34 0
 6-311+G(2d,p)
 ****
 1  2  14  15  16  17  18  19  20  21  22  23  25  26  27 0
 3-21G
 ****
 35  36  37  38  39  40  41  42  43  44  45 0
 3-21G
 ****


