%nproc=1
%NoSave
%Mem=1900MB
#P OB98/GEN NMR

erre ene a

0 1
  C     -299.786     102.997    -224.968
  O     -300.471     104.201    -224.698
  H     -299.473     102.548    -224.023
  H     -298.898     103.198    -225.572
  H     -300.438     102.293    -225.497
  P     -301.193     104.918    -225.937
  C     -302.846     105.708    -224.101
  O     -302.183     106.018    -225.317
  C     -303.348     106.989    -223.431
  O     -304.112     107.779    -224.373
  C     -304.263     106.751    -222.233
  O     -303.526     106.488    -221.044
  C     -304.974     108.094    -222.155
  O     -304.099     109.071    -221.558
  C     -305.192     108.421    -223.644
  N     -308.759     109.102    -227.179
  C     -307.594     109.810    -226.947
  N     -307.345     110.857    -227.767
  N     -306.751     109.528    -225.988
  C     -307.133     108.461    -225.238
  C     -308.262     107.685    -225.379
  C     -309.184     108.004    -226.440
  O     -310.211     107.400    -226.706
  N     -308.297     106.692    -224.440
  C     -307.203     106.878    -223.718
  N     -306.468     107.948    -224.163
  O     -302.197     103.790    -226.483
  O     -300.287     105.401    -227.020
  H     -304.600     109.911    -221.510
  H     -302.244     103.859    -227.458
  H     -309.384     109.377    -227.920
  H     -306.904     106.271    -222.873
  H     -305.143     109.492    -223.845
  H     -305.878     108.055    -221.548
  H     -307.983     111.162    -228.487
  H     -305.001     105.965    -222.439
  H     -306.483     111.368    -227.635
  H     -302.472     107.578    -223.142
  H     -302.146     105.202    -223.427
  H     -303.692     105.038    -224.316
  P     -304.051     105.315    -220.088
  C     -301.799     104.732    -218.942
  O     -303.076     105.330    -218.813
  O     -303.620     103.989    -220.869
  O     -305.518     105.345    -219.798
  H     -304.184     103.238    -220.592
  H     -301.269     104.820    -218.017
  H     -301.250     105.227    -219.716
  H     -301.913     103.698    -219.191

 6  7  8  9  10  11  12  13  14  15  26  29  33  34 0
 6-311+G(2d,p)
 ****
 36  38  39  40  41 0
 6-311+G(2d,p)
 ****
 1  2  3  4  5  16  17  18  19  20  21  22  23  24  25 0
 3-21G
 ****
 27  28  30  31  32  35  37  42  43  44  45  46  47 0
 3-21G
 ****
 48  49 0
 3-21G
 ****


