%nproc=1
%NoSave
%Mem=1900MB
#P OB98/GEN NMR

erre ene a

0 1
  C     -257.073    -240.112     450.811
  O     -257.982    -239.082     451.200
  P     -258.751    -238.241     450.079
  C     -260.187    -239.048     448.082
  O     -259.952    -239.122     449.484
  C     -261.627    -239.465     447.770
  O     -261.927    -240.780     448.301
  C     -262.663    -238.547     448.408
  O     -262.761    -237.238     447.888
  C     -263.918    -239.407     448.380
  O     -264.570    -239.341     447.114
  C     -263.331    -240.816     448.620
  N     -263.556    -241.293     449.986
  C     -264.738    -241.994     450.206
  O     -265.586    -242.178     449.334
  N     -264.932    -242.451     451.482
  C     -264.096    -242.249     452.542
  O     -264.334    -242.659     453.671
  C     -262.877    -241.482     452.255
  C     -262.663    -241.045     451.010
  O     -257.889    -237.575     449.063
  O     -259.538    -237.135     450.944
  H     -265.392    -239.866     447.181
  H     -259.482    -236.287     450.465
  H     -265.781    -242.965     451.656
  H     -262.191    -241.298     453.072
  H     -261.767    -240.480     450.778
  H     -263.792    -241.542     447.934
  H     -264.646    -239.081     449.130
  H     -262.392    -238.423     449.469
  H     -261.749    -239.512     446.689
  H     -259.484    -239.692     447.554
  H     -259.988    -238.026     447.741
  P     -262.419    -235.924     448.741
  C     -260.470    -234.215     448.790
  O     -260.890    -235.520     448.465
  O     -262.891    -235.884     450.156
  O     -263.209    -234.794     447.910
  H     -263.522    -234.114     448.537
  H     -259.413    -234.113     448.521
  H     -260.578    -234.030     449.863
  H     -261.046    -233.475     448.224
  H     -256.653    -240.566     451.684
  H     -256.290    -239.690     450.216
  H     -257.595    -240.852     450.241

 3  4  5  6  7  8  9  10  11  12  13  23  28  29  30  31  32 0
 6-311+G(2d,p)
 ****
 33  34 0
 6-311+G(2d,p)
 ****
 1  2  14  15  16  17  18  19  20  21  22  24  25  26  27 0
 3-21G
 ****
 35  36  37  38  39  40  41  42  43  44  45 0
 3-21G
 ****


