%nproc=1
%NoSave
%Mem=1900MB
#P OB98/GEN NMR

erre ene a

0 1
  C     -341.631    -828.062    -163.645
  O     -341.735    -826.930    -164.492
  H     -341.470    -828.944    -164.270
  H     -342.563    -828.191    -163.090
  H     -340.796    -827.960    -162.952
  P     -341.658    -825.469    -163.834
  C     -339.074    -825.529    -163.797
  O     -340.266    -825.383    -163.035
  C     -338.096    -824.385    -163.503
  O     -337.594    -824.530    -162.153
  C     -336.883    -824.429    -164.441
  O     -336.326    -823.131    -164.654
  C     -335.887    -825.276    -163.665
  O     -334.531    -825.056    -164.062
  C     -336.186    -824.862    -162.228
  N     -334.615    -825.900    -157.491
  C     -334.612    -824.693    -158.166
  N     -334.121    -823.622    -157.487
  N     -335.021    -824.555    -159.401
  C     -335.408    -825.723    -159.980
  C     -335.436    -826.976    -159.414
  C     -335.012    -827.111    -158.039
  O     -334.977    -828.162    -157.395
  N     -335.888    -827.917    -160.315
  C     -336.128    -827.226    -161.411
  N     -335.875    -825.888    -161.252
  O     -342.733    -825.533    -162.643
  O     -341.931    -824.327    -164.766
  H     -334.439    -825.399    -164.970
  H     -343.022    -824.635    -162.404
  H     -334.316    -825.942    -156.532
  H     -336.489    -827.654    -162.345
  H     -335.619    -823.964    -161.955
  H     -336.112    -826.333    -163.859
  H     -333.624    -823.729    -156.618
  H     -337.112    -824.881    -165.407
  H     -333.830    -822.824    -158.060
  H     -338.627    -823.422    -163.544
  H     -339.367    -825.526    -164.851
  H     -338.610    -826.498    -163.589
  P     -336.776    -822.306    -165.954
  C     -339.035    -821.332    -164.976
  O     -338.357    -822.107    -165.942
  O     -336.530    -823.323    -167.157
  O     -336.034    -821.012    -166.154
  H     -335.829    -822.984    -167.754
  H     -340.086    -821.350    -165.178
  H     -338.682    -820.323    -165.016
  H     -338.852    -821.736    -164.002

 6  7  8  9  10  11  12  13  14  15  26  29  33  34 0
 6-311+G(2d,p)
 ****
 36  38  39  40  41 0
 6-311+G(2d,p)
 ****
 1  2  3  4  5  16  17  18  19  20  21  22  23  24  25 0
 3-21G
 ****
 27  28  30  31  32  35  37  42  43  44  45  46  47 0
 3-21G
 ****
 48  49 0
 3-21G
 ****


