%nproc=1
%NoSave
%Mem=1900MB
#P OB98/GEN NMR

erre ene a

0 1
  C      185.952     -67.069    -395.878
  O      185.349     -66.246    -396.859
  P      184.966     -64.741    -396.466
  C      186.251     -63.586    -398.446
  O      186.131     -63.804    -397.052
  C      186.659     -62.134    -398.720
  O      185.731     -61.246    -398.042
  C      188.072     -61.772    -398.246
  O      188.608     -60.834    -399.186
  C      187.814     -61.096    -396.909
  O      188.878     -60.250    -396.508
  C      186.502     -60.360    -397.211
  N      185.750     -59.993    -396.010
  C      185.436     -58.652    -395.826
  O      185.771     -57.754    -396.596
  N      184.733     -58.358    -394.684
  C      184.382     -59.241    -393.705
  O      183.768     -58.921    -392.694
  C      184.784     -60.636    -393.933
  C      185.427     -60.944    -395.060
  O      185.234     -64.755    -394.889
  O      183.586     -64.349    -396.868
  H      185.992     -65.310    -394.638
  H      188.582     -59.734    -395.735
  H      184.462     -57.397    -394.547
  H      184.536     -61.367    -393.172
  H      185.733     -61.966    -395.249
  H      186.704     -59.460    -397.805
  H      187.674     -61.858    -396.137
  H      188.726     -62.643    -398.174
  H      186.557     -61.949    -399.799
  H      185.289     -63.782    -398.930
  H      186.987     -64.283    -398.859
  P      190.066     -61.131    -399.806
  C      189.786     -62.616    -401.943
  O      189.990     -62.546    -400.550
  O      190.879     -61.472    -398.466
  O      190.669     -59.999    -400.573
  H      190.415     -62.110    -397.895
  H      190.096     -63.604    -402.292
  H      190.371     -61.859    -402.470
  H      188.722     -62.481    -402.166
  H      186.145     -68.036    -396.293
  H      185.294     -67.165    -395.040
  H      186.873     -66.628    -395.559

 3  4  5  6  7  8  9  10  11  12  13  24  28  29  30  31  32 0
 6-311+G(2d,p)
 ****
 33  34 0
 6-311+G(2d,p)
 ****
 1  2  14  15  16  17  18  19  20  21  22  23  25  26  27 0
 3-21G
 ****
 35  36  37  38  39  40  41  42  43  44  45 0
 3-21G
 ****


