%nproc=1
%NoSave
%Mem=1900MB
#P OB98/GEN NMR

erre ene a

0 1
  C      534.039    -124.798    -240.618
  O      534.274    -123.397    -240.562
  P      533.561    -122.547    -239.408
  C      535.797    -122.106    -238.061
  O      534.461    -122.556    -238.088
  C      536.326    -122.175    -236.622
  O      536.400    -123.549    -236.179
  C      537.719    -121.578    -236.458
  O      537.672    -120.177    -236.234
  C      538.263    -122.359    -235.278
  O      537.718    -121.853    -234.047
  C      537.710    -123.775    -235.579
  N      538.495    -124.653    -236.471
  C      539.594    -125.345    -235.965
  O      539.984    -125.274    -234.802
  N      540.251    -126.153    -236.853
  C      539.843    -126.473    -238.113
  O      540.446    -127.251    -238.845
  C      538.597    -125.834    -238.546
  C      537.997    -124.964    -237.727
  O      532.290    -123.427    -239.014
  O      533.173    -121.157    -239.812
  H      537.849    -122.537    -233.373
  H      531.466    -122.960    -239.231
  H      541.090    -126.608    -236.529
  H      538.207    -126.095    -239.519
  H      537.076    -124.483    -238.038
  H      537.549    -124.332    -234.647
  H      539.343    -122.254    -235.202
  H      538.333    -121.808    -237.333
  H      535.618    -121.652    -235.967
  H      535.868    -121.084    -238.438
  H      536.410    -122.732    -238.719
  P      538.193    -119.174    -237.367
  C      535.807    -118.713    -238.201
  O      537.085    -119.229    -238.529
  O      539.602    -119.357    -237.813
  O      537.942    -117.725    -236.722
  H      538.766    -117.387    -236.303
  H      535.204    -118.661    -239.112
  H      535.899    -117.706    -237.776
  H      535.313    -119.375    -237.487
  H      534.582    -125.218    -241.438
  H      532.993    -124.979    -240.753
  H      534.365    -125.251    -239.705

 3  4  5  6  7  8  9  10  11  12  13  23  28  29  30  31  32 0
 6-311+G(2d,p)
 ****
 33  34 0
 6-311+G(2d,p)
 ****
 1  2  14  15  16  17  18  19  20  21  22  24  25  26  27 0
 3-21G
 ****
 35  36  37  38  39  40  41  42  43  44  45 0
 3-21G
 ****


