%nproc=1
%NoSave
%Mem=1900MB
#P OB98/GEN NMR

erre ene a

0 1
  C      622.814     165.609     364.792
  O      622.317     165.465     363.480
  P      621.097     166.380     362.971
  C      619.803     164.308     362.149
  O      619.791     165.449     363.007
  C      619.100     163.137     362.827
  O      619.761     162.782     364.067
  C      617.658     163.423     363.236
  O      616.724     163.649     362.203
  C      617.384     162.274     364.189
  O      617.051     161.082     363.484
  C      618.758     162.121     364.894
  N      618.740     162.659     366.254
  C      618.014     161.936     367.186
  O      617.402     160.899     366.916
  N      617.972     162.454     368.457
  C      618.531     163.633     368.854
  O      618.419     164.068     369.995
  C      619.277     164.365     367.828
  C      619.345     163.855     366.588
  O      621.334     167.074     361.667
  O      620.843     167.376     364.198
  H      616.937     160.373     364.151
  H      620.610     166.934     365.036
  H      617.427     161.955     369.139
  H      619.751     165.300     368.111
  H      619.891     164.385     365.806
  H      619.038     161.067     364.946
  H      616.547     162.499     364.859
  H      617.660     164.346     363.835
  H      619.164     162.266     362.161
  H      620.844     164.031     361.945
  H      619.334     164.561     361.196
  P      615.855     164.988     362.072
  C      613.604     163.697     361.995
  O      614.384     164.687     362.628
  O      615.968     165.732     360.774
  O      616.474     165.891     363.248
  H      616.420     166.832     362.992
  H      612.625     163.658     362.483
  H      614.082     162.717     362.096
  H      613.473     163.936     360.936
  H      623.619     164.921     364.946
  H      622.032     165.407     365.494
  H      623.168     166.609     364.931

 3  4  5  6  7  8  9  10  11  12  13  23  28  29  30  31  32 0
 6-311+G(2d,p)
 ****
 33  34 0
 6-311+G(2d,p)
 ****
 1  2  14  15  16  17  18  19  20  21  22  24  25  26  27 0
 3-21G
 ****
 35  36  37  38  39  40  41  42  43  44  45 0
 3-21G
 ****


