%nproc=1
%NoSave
%Mem=1900MB
#P OB98/GEN NMR

erre ene a

0 1
  C     -309.873     166.167     -82.912
  O     -308.739     165.436     -83.338
  H     -310.380     165.603     -82.125
  H     -310.565     166.310     -83.747
  H     -309.570     167.139     -82.511
  P     -307.837     166.109     -84.482
  C     -308.892     164.304     -86.030
  O     -308.474     165.657     -85.883
  C     -308.825     163.904     -87.502
  O     -309.794     164.667     -88.259
  C     -307.481     164.189     -88.159
  O     -306.506     163.216     -87.837
  C     -307.868     164.195     -89.629
  O     -307.916     162.866     -90.165
  C     -309.276     164.807     -89.602
  N     -311.702     168.370     -92.339
  C     -311.998     167.081     -92.075
  N     -311.302     166.198     -91.324
  C     -310.214     166.780     -90.796
  C     -309.787     168.085     -90.973
  C     -310.589     168.904     -91.786
  N     -310.276     170.214     -92.076
  N     -308.601     168.304     -90.301
  C     -308.318     167.154     -89.725
  N     -309.266     166.204     -89.991
  O     -306.470     165.278     -84.399
  O     -307.609     167.575     -84.329
  H     -308.137     162.960     -91.113
  H     -305.808     165.794     -83.899
  H     -312.904     166.699     -92.538
  H     -307.443     166.957     -89.113
  H     -309.969     164.286     -90.274
  H     -307.152     164.766     -90.220
  H     -307.132     165.191     -87.882
  H     -309.084     162.841     -87.589
  H     -309.921     164.202     -85.674
  H     -308.239     163.663     -85.428
  H     -310.857     170.719     -92.723
  H     -309.388     170.586     -91.762
  P     -304.987     163.705     -87.679
  C     -304.497     164.062     -90.217
  O     -304.659     164.650     -88.934
  O     -304.125     162.385     -87.963
  O     -304.663     164.308     -86.353
  H     -303.328     162.383     -87.395
  H     -304.284     164.826     -90.935
  H     -305.397     163.554     -90.493
  H     -303.687     163.363     -90.189

 6  7  8  9  10  11  12  13  14  15  25  28  32  33  34  35 0
 6-311+G(2d,p)
 ****
 36  37  40 0
 6-311+G(2d,p)
 ****
 1  2  3  4  5  16  17  18  19  20  21  22  23  24 0
 3-21G
 ****
 26  27  29  30  31  38  39 41  42  43  44  45  46  47  48 0
 3-21G
 ****


