%nproc=1
%NoSave
%Mem=1900MB
#P OB98/GEN NMR

erre ene a

0 1
  C      159.778      24.285     -87.891
  O      160.951      23.528     -88.214
  P      161.278      22.092     -87.573
  C      162.613      23.315     -85.733
  O      161.686      22.279     -86.030
  C      163.362      23.052     -84.421
  O      162.414      22.944     -83.314
  C      164.214      21.767     -84.421
  O      165.411      22.071     -83.696
  C      163.326      20.800     -83.652
  O      164.017      19.676     -83.141
  C      162.771      21.750     -82.585
  N      161.629      21.244     -81.829
  C      161.888      20.539     -80.647
  O      163.038      20.299     -80.282
  N      160.822      20.095     -79.900
  C      159.608      20.324     -80.295
  N      158.601      19.867     -79.503
  C      159.290      21.046     -81.540
  C      160.334      21.474     -82.248
  O      162.276      21.300     -88.356
  O      159.876      21.323     -87.508
  H      160.022      20.373     -87.682
  H      164.724      19.999     -82.551
  H      158.264      21.222     -81.830
  H      160.183      22.038     -83.163
  H      163.574      22.026     -81.890
  H      162.541      20.435     -84.323
  H      164.486      21.421     -85.423
  H      163.991      23.926     -84.209
  H      158.860      19.383     -78.651
  H      162.063      24.256     -85.641
  H      157.622      19.996     -79.710
  H      163.320      23.411     -86.565
  P      166.729      22.522     -84.494
  C      168.340      20.476     -84.374
  O      167.389      21.204     -85.125
  O      167.743      22.853     -83.293
  O      166.586      23.711     -85.390
  H      168.407      23.496     -83.604
  H      168.115      19.410     -84.461
  H      168.333      20.751     -83.315
  H      169.337      20.662     -84.784
  H      159.783      25.202     -88.442
  H      159.769      24.498     -86.843
  H      158.907      23.719     -88.148

 3  4  5  6  7  8  9  10  11  12  13  24  27  28  29  30  32 0
 6-311+G(2d,p)
 ****
 34  35 0
 6-311+G(2d,p)
 ****
 1  2  14  15  16  17  18  19  20  21  22  23  25  26 0
 3-21G
 ****
 31  33  36  37  38  39  40  41  42  43  44  45  46 0
 3-21G
 ****


