%nproc=1
%NoSave
%Mem=1900MB
#P OB98/GEN NMR

erre ene a

0 1
  C      163.238     233.712      96.745
  O      163.511     234.158      95.420
  P      165.016     234.551      95.037
  C      165.677     232.517      93.477
  O      165.847     233.234      94.680
  C      166.796     231.471      93.349
  O      168.085     232.120      93.280
  C      166.848     230.497      94.522
  O      165.981     229.396      94.337
  C      168.314     230.115      94.545
  O      168.600     229.150      93.514
  C      168.986     231.469      94.219
  N      169.259     232.398      95.338
  C      170.309     232.141      96.214
  O      171.054     231.164      96.133
  N      170.502     233.061      97.211
  C      169.885     234.273      97.321
  O      170.138     235.084      98.200
  C      168.888     234.563      96.285
  C      168.617     233.632      95.368
  O      165.644     235.034      96.424
  O      165.132     235.597      93.973
  H      168.491     229.601      92.660
  H      165.882     235.981      96.381
  H      171.214     232.855      97.896
  H      168.406     235.533      96.306
  H      167.877     233.835      94.596
  H      169.942     231.311      93.702
  H      168.583     229.637      95.486
  H      166.622     231.020      95.457
  H      166.648     230.915      92.413
  H      165.698     233.189      92.615
  H      164.699     232.027      93.475
  P      164.770     229.149      95.358
  C      162.771     229.744      93.866
  O      163.616     230.173      94.917
  O      165.124     229.164      96.810
  O      164.173     227.734      94.901
  H      164.544     227.006      95.446
  H      161.941     230.450      93.770
  H      162.368     228.750      94.082
  H      163.326     229.725      92.927
  H      162.195     233.491      96.839
  H      163.504     234.479      97.442
  H      163.809     232.831      96.950

 3  4  5  6  7  8  9  10  11  12  13  23  28  29  30  31  32 0
 6-311+G(2d,p)
 ****
 33  34 0
 6-311+G(2d,p)
 ****
 1  2  14  15  16  17  18  19  20  21  22  24  25  26  27 0
 3-21G
 ****
 35  36  37  38  39  40  41  42  43  44  45 0
 3-21G
 ****


