%nproc=1
%NoSave
%Mem=1900MB
#P OB98/GEN NMR

erre ene a

0 1
  C      155.308    -298.638    -519.872
  O      154.108    -299.357    -519.641
  H      156.167    -299.303    -519.750
  H      155.296    -298.258    -520.900
  H      155.386    -297.791    -519.184
  P      153.841    -299.854    -518.141
  C      153.294    -302.152    -519.247
  O      152.930    -301.175    -518.271
  C      152.050    -302.638    -519.998
  O      151.022    -302.980    -519.024
  C      151.459    -301.595    -520.950
  O      151.000    -302.260    -522.134
  C      150.275    -301.033    -520.180
  O      149.284    -300.498    -521.035
  C      149.824    -302.271    -519.393
  N      145.441    -300.242    -517.709
  C      145.866    -300.586    -518.948
  N      147.045    -301.127    -519.305
  C      147.817    -301.356    -518.219
  C      147.520    -301.064    -516.898
  C      146.269    -300.468    -516.653
  N      145.844    -300.081    -515.405
  N      148.579    -301.420    -516.080
  C      149.491    -301.907    -516.894
  N      149.073    -301.895    -518.196
  O      152.816    -298.745    -517.592
  O      155.046    -299.979    -517.272
  H      148.531    -300.177    -520.485
  H      153.312    -297.940    -517.335
  H      145.162    -300.387    -519.757
  H      150.466    -302.287    -516.591
  H      149.181    -302.934    -519.979
  H      150.616    -300.239    -519.512
  H      152.180    -300.819    -521.226
  H      152.309    -303.566    -520.526
  H      153.777    -302.991    -518.741
  H      144.961    -299.604    -515.326
  H      146.477    -300.185    -514.627
  H      154.000    -301.701    -519.952
  P      152.097    -302.525    -523.291
  C      151.918    -300.441    -524.823
  O      151.593    -301.812    -524.639
  O      151.937    -304.090    -523.601
  O      153.494    -302.189    -522.868
  H      152.806    -304.523    -523.587
  H      151.521    -300.103    -525.757
  H      152.982    -300.324    -524.824
  H      151.497    -299.864    -524.026

 6  7  8  9  10  11  12  13  14  15  25  28  32  33  34  35 0
 6-311+G(2d,p)
 ****
 36  39  40 0
 6-311+G(2d,p)
 ****
 1  2  3  4  5  16  17  18  19  20  21  22  23  24 0
 3-21G
 ****
 26  27  29  30  31  37  38  41  42  43  44  45  46  47 0
 3-21G
 ****
 48 0
 3-21G
 ****


