%nproc=1
%NoSave
%Mem=1900MB
#P OB98/GEN NMR

erre ene a

0 1
  C      148.309    -151.699     114.559
  O      148.978    -150.565     115.071
  H      147.255    -151.640     114.840
  H      148.730    -152.618     114.973
  H      148.379    -151.716     113.468
  P      150.572    -150.483     114.938
  C      150.723    -148.213     113.728
  O      150.949    -148.922     114.940
  C      149.252    -147.813     113.601
  O      148.865    -147.089     114.800
  C      148.963    -146.919     112.390
  O      147.687    -147.282     111.858
  C      148.909    -145.536     113.005
  O      148.154    -144.642     112.211
  C      148.330    -145.816     114.395
  N      148.673    -144.752     115.337
  C      147.775    -143.684     115.427
  O      146.747    -143.678     114.747
  N      148.086    -142.620     116.232
  C      149.224    -142.593     116.851
  N      149.488    -141.490     117.602
  C      150.216    -143.683     116.764
  C      149.879    -144.722     115.999
  O      151.182    -151.270     113.827
  O      151.096    -150.982     116.366
  H      147.198    -144.832     112.327
  H      151.239    -151.947     116.350
  H      151.153    -143.611     117.294
  H      150.550    -145.563     115.867
  H      147.237    -145.908     114.351
  H      149.926    -145.131     113.093
  H      149.728    -146.991     111.611
  H      148.644    -148.724     113.571
  H      148.788    -140.757     117.611
  H      150.996    -148.873     112.897
  H      150.354    -141.337     118.093
  H      151.359    -147.324     113.695
  P      147.570    -147.966     110.411
  C      145.100    -148.624     110.530
  O      146.063    -147.805     109.875
  O      148.112    -149.356     110.332
  O      148.405    -146.985     109.455
  H      148.793    -147.501     108.725
  H      144.134    -148.447     110.106
  H      145.081    -148.387     111.573
  H      145.362    -149.654     110.403

 6  7  8  9  10  11  12  13  14  15  16  26  30  31  32  33  35 0
 6-311+G(2d,p)
 ****
 37  38 0
 6-311+G(2d,p)
 ****
 1  2  3  4  5  17  18  19  20  21  22  23  24  25 0
 3-21G
 ****
 27  28  29  34  36  39  40  41  42  43  44  45  46 0
 3-21G
 ****


