%nproc=1
%NoSave
%Mem=1900MB
#P OB98/GEN NMR

erre ene a

0 1
  C      -84.505    -101.251     298.689
  O      -84.708     -99.963     299.256
  P      -83.567     -98.865     299.030
  C      -83.619     -96.283     298.671
  O      -84.314     -97.525     298.587
  C      -84.581     -95.113     298.559
  O      -85.180     -95.071     297.243
  C      -85.750     -95.181     299.534
  O      -85.335     -94.800     300.840
  C      -86.745     -94.209     298.895
  O      -86.502     -92.859     299.314
  C      -86.451     -94.388     297.375
  N      -87.507     -95.108     296.678
  C      -88.663     -94.357     296.385
  O      -88.734     -93.181     296.739
  N      -89.705     -94.972     295.747
  C      -89.613     -96.236     295.425
  N      -90.670     -96.787     294.792
  C      -88.420     -97.057     295.734
  C      -87.425     -96.430     296.372
  O      -82.842     -99.354     297.675
  O      -82.601     -98.724     300.168
  H      -85.592     -92.658     299.030
  H      -81.921     -99.042     297.642
  H      -88.403     -98.097     295.437
  H      -86.515     -96.981     296.617
  H      -86.321     -93.415     296.889
  H      -87.783     -94.451     299.170
  H      -86.175     -96.198     299.552
  H      -84.020     -94.169     298.697
  H      -91.484     -96.198     294.590
  H      -82.889     -96.229     297.828
  H      -90.705     -97.754     294.477
  H      -83.049     -96.245     299.607
  P      -85.869     -95.668     302.077
  C      -84.774     -96.757     304.114
  O      -84.576     -95.977     302.948
  O      -86.167     -97.084     301.389
  O      -87.073     -95.143     302.812
  H      -86.597     -97.684     302.029
  H      -83.801     -97.034     304.536
  H      -85.322     -97.671     303.886
  H      -85.327     -96.177     304.858
  H      -85.342    -101.877     298.918
  H      -83.614    -101.683     299.095
  H      -84.406    -101.162     297.627

 3  4  5  6  7  8  9  10  11  12  13  21  23  27  28  29  30  32 0
 6-311+G(2d,p)
 ****
 34  35 0
 6-311+G(2d,p)
 ****
 1  2  14  15  16  17  18  19  20  22  24  25  26 0
 3-21G
 ****
 31  33  36  37  38  39  40  41  42  43  44  45  46 0
 3-21G
 ****


