%nproc=1
%NoSave
%Mem=1900MB
#P OB98/GEN NMR

erre ene a

0 1
  C      623.169     447.308    -203.255
  O      622.692     446.207    -203.991
  P      623.691     445.018    -204.389
  C      623.204     443.900    -202.121
  O      623.271     443.723    -203.538
  C      623.013     442.552    -201.430
  O      621.695     442.030    -201.693
  C      623.979     441.468    -201.891
  O      625.260     441.658    -201.322
  C      623.258     440.211    -201.428
  O      623.508     439.967    -200.038
  C      621.786     440.584    -201.653
  N      620.673     436.239    -204.083
  C      621.355     436.491    -202.944
  N      621.643     437.682    -202.377
  C      621.168     438.685    -203.134
  C      620.484     438.594    -204.343
  C      620.209     437.294    -204.811
  N      619.466     437.031    -205.935
  N      620.187     439.849    -204.824
  C      620.689     440.688    -203.941
  N      621.237     440.024    -202.874
  O      625.145     445.360    -204.344
  O      623.243     444.627    -205.871
  H      624.440     439.697    -199.946
  H      623.992     444.762    -206.485
  H      621.707     435.611    -202.418
  H      620.678     441.774    -204.016
  H      621.152     440.254    -200.825
  H      623.576     439.317    -201.981
  H      624.036     441.466    -202.988
  H      623.100     442.704    -200.346
  H      622.360     444.555    -201.891
  H      619.206     436.069    -206.100
  H      618.870     437.773    -206.308
  H      624.130     444.374    -201.770
  P      626.566     441.543    -202.248
  C      626.850     444.063    -201.888
  O      627.492     442.802    -201.895
  O      626.311     441.321    -203.696
  O      627.374     440.321    -201.596
  H      627.872     439.860    -202.297
  H      626.715     444.422    -202.915
  H      627.480     444.785    -201.353
  H      625.879     444.008    -201.384
  H      622.368     447.996    -203.083
  H      623.946     447.796    -203.806
  H      623.556     446.969    -202.317

 3  4  5  6  7  8  9  10  11  12  22  25  29  30  31  32 0
 6-311+G(2d,p)
 ****
 33  36  37 0
 6-311+G(2d,p)
 ****
 1  2  13  14  15  16  17  18  19  20  21  23  24  26 0
 3-21G
 ****
 27  28  34  35  38  39  40  41  42  43  44  45  46  47  48 0
 3-21G
 ****


