%nproc=1
%NoSave
%Mem=1900MB
#P OB98/GEN NMR

erre ene a

0 1
  C      199.847     839.466      96.097
  O      201.075     839.220      96.750
  H      199.288     840.200      96.676
  H      199.262     838.542      96.044
  H      200.014     839.860      95.090
  P      202.169     838.293      96.019
  C      202.284     836.487      97.856
  O      202.978     837.528      97.173
  C      203.254     835.359      98.201
  O      203.672     834.675      97.004
  C      204.547     835.843      98.864
  O      204.340     836.199     100.214
  C      205.442     834.636      98.642
  O      205.213     833.630      99.635
  C      204.998     834.148      97.248
  N      205.929     834.557      96.200
  C      207.149     833.893      96.167
  O      207.472     833.004      96.967
  N      208.051     834.339      95.232
  C      207.892     835.441      94.441
  O      208.811     835.944      93.795
  C      206.558     836.059      94.467
  C      205.663     835.605      95.334
  O      203.017     838.982      94.998
  O      201.291     837.125      95.363
  H      201.185     837.300      94.409
  H      205.403     834.055     100.499
  H      208.958     833.890      95.239
  H      206.369     836.892      93.796
  H      204.669     836.059      95.397
  H      204.903     833.052      97.235
  H      206.507     834.912      98.694
  H      204.951     836.698      98.299
  H      202.731     834.637      98.848
  H      201.493     836.096      97.196
  H      201.821     836.902      98.759
  P      204.598     837.703     100.700
  C      206.014     836.539     102.516
  O      205.186     837.654     102.197
  O      203.457     838.644     100.505
  O      205.878     838.172      99.841
  H      205.683     839.033      99.433
  H      206.342     836.617     103.531
  H      206.864     836.529     101.866
  H      205.458     835.634     102.390

 6  7  8  9  10  11  12  13  14  15  16  27  31  32  33  34  35 0
 6-311+G(2d,p)
 ****
 36  37 0
 6-311+G(2d,p)
 ****
 1  2  3  4  5  17  18  19  20  21  22  23  24  25 0
 3-21G
 ****
 26  28  29  30  38  39  40  41  42  43  44  45 0
 3-21G
 ****


