%nproc=1
%NoSave
%Mem=1900MB
#P OB98/GEN NMR

erre ene a

0 1
  C      111.911    -377.401    -106.819
  O      110.804    -377.522    -105.944
  P      109.728    -376.331    -105.947
  C      109.763    -373.858    -105.137
  O      110.393    -375.138    -105.109
  C      109.797    -373.217    -103.753
  O      108.990    -373.978    -102.838
  C      111.183    -373.165    -103.134
  O      111.946    -372.113    -103.699
  C      110.846    -372.958    -101.660
  O      110.672    -371.566    -101.359
  C      109.511    -373.728    -101.513
  N      109.653    -374.960    -100.754
  C      109.827    -374.807     -99.372
  O      109.864    -373.680     -98.875
  N      109.983    -375.932     -98.602
  C      109.979    -377.100     -99.161
  N      110.138    -378.182     -98.348
  C      109.822    -377.303    -100.616
  C      109.673    -376.199    -101.345
  O      108.580    -376.877    -104.978
  O      109.207    -375.964    -107.298
  H      111.530    -371.141    -101.564
  H      107.717    -376.476    -105.203
  H      109.825    -378.300    -101.033
  H      109.554    -376.256    -102.421
  H      108.766    -373.098    -101.003
  H      111.638    -373.330    -101.001
  H      111.701    -374.123    -103.262
  H      109.375    -372.208    -103.831
  H      110.249    -378.012     -97.356
  H      108.724    -373.976    -105.448
  H      110.125    -379.134     -98.685
  H      110.278    -373.228    -105.872
  P      113.486    -372.406    -104.028
  C      115.593    -372.690    -102.590
  O      114.237    -372.281    -102.617
  O      113.934    -371.053    -104.763
  O      113.793    -373.617    -104.839
  H      114.842    -371.148    -105.107
  H      116.024    -372.412    -101.624
  H      116.157    -372.197    -103.385
  H      115.658    -373.777    -102.703
  H      112.543    -378.258    -106.715
  H      112.464    -376.518    -106.575
  H      111.562    -377.336    -107.828

 3  4  5  6  7  8  9  10  11  12  13  21  23  27  28  29  30  32 0
 6-311+G(2d,p)
 ****
 34  35 0
 6-311+G(2d,p)
 ****
 1  2  14  15  16  17  18  19  20  22  24  25  26 0
 3-21G
 ****
 31  33  36  37  38  39  40  41  42  43  44  45  46 0
 3-21G
 ****


