%nproc=1
%NoSave
%Mem=1900MB
#P OB98/GEN NMR

erre ene a

0 1
  C      -86.709    -485.416    -645.166
  O      -87.510    -485.760    -646.300
  P      -87.153    -487.087    -647.141
  C      -87.297    -486.413    -649.615
  O      -87.962    -487.056    -648.527
  C      -88.286    -485.757    -650.592
  O      -89.454    -486.625    -650.795
  C      -88.815    -484.389    -650.146
  O      -88.973    -483.593    -651.335
  C      -90.165    -484.733    -649.542
  O      -91.024    -483.598    -649.438
  C      -90.626    -485.822    -650.513
  N      -91.699    -486.641    -649.956
  C      -93.013    -486.285    -650.281
  O      -93.230    -485.246    -650.914
  N      -94.034    -487.075    -649.837
  C      -93.780    -488.070    -649.040
  N      -94.837    -488.851    -648.638
  C      -92.428    -488.373    -648.529
  C      -91.444    -487.646    -649.050
  O      -87.254    -488.375    -646.377
  O      -85.638    -486.818    -647.603
  H      -91.949    -483.904    -649.321
  H      -85.152    -487.670    -647.616
  H      -92.276    -489.148    -647.786
  H      -90.418    -487.782    -648.747
  H      -90.967    -485.389    -651.464
  H      -90.025    -485.141    -648.531
  H      -88.145    -483.871    -649.458
  H      -87.789    -485.657    -651.578
  H      -95.753    -488.625    -648.968
  H      -86.696    -487.151    -650.155
  H      -94.708    -489.658    -648.053
  H      -86.584    -485.668    -649.223
  P      -87.779    -482.621    -651.787
  C      -88.761    -480.243    -652.167
  O      -88.404    -481.488    -652.728
  O      -86.980    -483.541    -652.847
  O      -86.842    -482.182    -650.703
  H      -86.058    -483.236    -652.885
  H      -88.898    -479.514    -652.983
  H      -88.000    -479.870    -651.487
  H      -89.715    -480.341    -651.635
  H      -87.081    -484.514    -644.727
  H      -85.695    -485.270    -645.476
  H      -86.751    -486.207    -644.446

 3  4  5  6  7  8  9  10  11  12  13  23  27  28  29  30  32 0
 6-311+G(2d,p)
 ****
 34  35 0
 6-311+G(2d,p)
 ****
 1  2  14  15  16  17  18  19  20  21  22  24  25  26 0
 3-21G
 ****
 31  33  36  37  38  39  40  41  42  43  44  45  46 0
 3-21G
 ****


