%nproc=1
%NoSave
%Mem=1900MB
#P OB98/GEN NMR

erre ene a

0 1
  C       -8.811     520.925    -342.519
  O       -8.332     521.757    -341.455
  P       -6.837     521.465    -340.954
  C       -5.738     523.833    -341.005
  O       -6.299     522.792    -340.210
  C       -5.899     525.183    -340.318
  O       -7.259     525.658    -340.345
  C       -5.494     525.161    -338.839
  O       -4.082     525.251    -338.714
  C       -6.204     526.418    -338.311
  O       -5.440     527.609    -338.566
  C       -7.507     526.434    -339.141
  N      -11.800     527.695    -336.766
  C      -10.765     528.498    -337.211
  N      -10.913     529.825    -337.021
  N       -9.700     528.039    -337.803
  C       -9.684     526.696    -337.928
  C      -10.667     525.796    -337.560
  C      -11.853     526.322    -336.916
  O      -12.814     525.652    -336.526
  N      -10.325     524.509    -337.905
  C       -9.104     524.622    -338.368
  N       -8.676     525.923    -338.466
  O       -5.987     521.416    -342.307
  O       -6.716     520.200    -340.173
  H       -4.642     527.597    -338.012
  H       -5.696     520.505    -342.477
  H      -12.611     528.111    -336.320
  H       -8.467     523.788    -338.676
  H       -7.755     527.463    -339.470
  H       -6.369     526.356    -337.239
  H      -11.708     530.258    -336.588
  H       -5.885     524.283    -338.352
  H      -10.160     530.432    -337.338
  H       -5.276     525.909    -340.855
  H       -6.217     523.853    -341.981
  H       -4.682     523.597    -341.166
  P       -3.348     524.209    -337.739
  C       -2.919     522.396    -339.551
  O       -2.365     523.322    -338.637
  O       -4.527     523.194    -337.348
  O       -2.738     524.822    -336.528
  H       -4.508     523.001    -336.376
  H       -2.243     522.260    -340.411
  H       -3.905     522.724    -339.935
  H       -3.049     521.418    -339.060
  H       -9.812     521.208    -342.770
  H       -8.797     519.902    -342.206
  H       -8.182     521.044    -343.376

 3  4  5  6  7  8  9  10  11  12  23  26  30  31 0
 6-311+G(2d,p)
 ****
 33  35  36  37  38 0
 6-311+G(2d,p)
 ****
 1  2  13  14  15  16  17  18  19  20  21  22  24  25 0
 3-21G
 ****
 27  28  29  32  34  39  40  41  42  43  44  45  46  47  48  49 0
 3-21G
 ****


