%nproc=1
%NoSave
%Mem=1900MB
#P OB98/GEN NMR

erre ene a

0 1
  C      399.053     761.209    -688.148
  O      399.449     760.507    -689.323
  P      400.856     759.785    -689.519
  C      399.963     757.329    -689.727
  O      400.726     758.280    -688.993
  C      399.599     756.085    -688.895
  O      398.617     756.445    -687.882
  C      398.930     755.023    -689.774
  O      399.733     754.138    -690.534
  C      397.924     754.336    -688.863
  O      398.454     753.161    -688.255
  C      397.635     755.401    -687.800
  N      392.596     754.499    -687.972
  C      393.649     753.594    -687.938
  N      393.324     752.292    -687.997
  N      394.902     753.951    -687.852
  C      395.095     755.289    -687.885
  C      394.141     756.285    -687.940
  C      392.744     755.883    -687.962
  O      391.783     756.633    -687.984
  N      394.705     757.523    -687.977
  C      396.006     757.297    -687.972
  N      396.293     755.942    -687.905
  O      402.056     760.558    -689.070
  O      400.964     759.620    -691.125
  H      397.857     752.898    -687.536
  H      401.915     759.691    -691.346
  H      391.651     754.166    -688.001
  H      396.775     758.052    -687.996
  H      397.716     754.986    -686.789
  H      397.039     754.021    -689.432
  H      392.387     751.955    -688.174
  H      398.322     755.564    -690.517
  H      394.088     751.641    -688.183
  H      400.461     755.708    -688.342
  H      400.574     757.037    -690.593
  H      399.063     757.792    -690.118
  P      400.295     754.395    -692.010
  C      402.660     754.832    -691.118
  O      401.588     755.337    -691.886
  O      399.218     755.366    -692.676
  O      400.495     753.163    -692.831
  H      399.321     755.371    -693.650
  H      403.330     755.653    -690.849
  H      403.217     754.100    -691.713
  H      402.298     754.353    -690.188
  H      398.064     761.596    -688.280
  H      399.732     762.017    -687.969
  H      399.066     760.541    -687.312

 3  4  5  6  7  8  9  10  11  12  23  26  30  31 0
 6-311+G(2d,p)
 ****
 33  35  36  37  38 0
 6-311+G(2d,p)
 ****
 1  2  13  14  15  16  17  18  19  20  21  22  24  25 0
 3-21G
 ****
 27  28  29  32  34  39  40  41  42  43  44  45  46  47  48  49 0
 3-21G
 ****


