%nproc=1
%NoSave
%Mem=1900MB
#P OB98/GEN NMR

erre ene a

0 1
  C      336.913    -226.875     211.608
  O      335.711    -226.711     210.883
  P      335.681    -225.760     209.599
  C      336.505    -223.410     208.953
  O      336.386    -224.373     209.993
  C      336.298    -221.998     209.510
  O      337.308    -221.704     210.504
  C      336.425    -220.898     208.459
  O      335.267    -220.828     207.657
  C      336.663    -219.683     209.339
  O      335.424    -219.177     209.869
  C      337.519    -220.272     210.484
  N      341.221    -216.863     211.365
  C      339.870    -216.793     211.504
  N      338.955    -217.736     211.205
  C      339.538    -218.835     210.699
  C      340.900    -219.034     210.476
  C      341.760    -217.998     210.854
  N      343.132    -218.076     210.789
  N      341.109    -220.287     209.917
  C      339.902    -220.816     209.800
  N      338.939    -219.998     210.327
  O      334.350    -225.623     208.925
  O      336.748    -226.432     208.604
  H      335.070    -218.536     209.218
  H      336.299    -226.692     207.768
  H      339.484    -215.860     211.900
  H      339.690    -221.784     209.369
  H      337.212    -219.895     211.462
  H      337.148    -218.859     208.810
  H      337.315    -221.075     207.838
  H      335.313    -221.963     209.989
  H      335.744    -223.619     208.192
  H      343.653    -217.333     211.222
  H      343.559    -219.003     210.703
  H      337.503    -223.503     208.491
  P      335.344    -220.207     206.181
  C      336.469    -218.122     205.204
  O      335.845    -218.696     206.340
  O      334.140    -220.408     205.325
  O      336.630    -220.939     205.543
  H      336.494    -221.054     204.586
  H      337.499    -218.490     205.136
  H      336.483    -217.030     205.313
  H      335.929    -218.370     204.286
  H      336.747    -227.541     212.429
  H      337.238    -225.926     211.980
  H      337.665    -227.282     210.965

 3  4  5  6  7  8  9  10  11  12  22  25  29  30  31  32 0
 6-311+G(2d,p)
 ****
 33  36  37 0
 6-311+G(2d,p)
 ****
 1  2  13  14  15  16  17  18  19  20  21  23  24  26 0
 3-21G
 ****
 27  28  34  35  38  39  40  41  42  43  44  45  46  47  48 0
 3-21G
 ****


