%nproc=1
%NoSave
%Mem=1900MB
#P OB98/GEN NMR

erre ene a

0 1
  C      -32.544    -105.331     317.265
  O      -32.428    -104.843     315.944
  H      -32.813    -106.390     317.222
  H      -33.325    -104.793     317.806
  H      -31.590    -105.235     317.792
  P      -32.104    -103.290     315.724
  C      -30.491    -104.006     313.841
  O      -30.669    -103.213     315.010
  C      -29.390    -103.406     312.959
  O      -29.883    -102.151     312.431
  C      -28.098    -103.127     313.741
  O      -26.943    -103.708     313.140
  C      -28.116    -101.613     313.917
  O      -26.843    -101.022     314.072
  C      -28.900    -101.131     312.691
  N      -29.541     -99.831     312.873
  C      -28.855     -98.712     312.412
  O      -27.765     -98.733     311.844
  N      -29.482     -97.508     312.617
  C      -30.685     -97.322     313.227
  O      -31.199     -96.220     313.376
  C      -31.351     -98.540     313.712
  C      -30.757     -99.721     313.517
  O      -32.249    -102.422     316.928
  O      -33.108    -102.847     314.557
  H      -26.582    -101.119     315.011
  H      -33.858    -102.355     314.941
  H      -28.999     -96.692     312.277
  H      -32.303     -98.429     314.210
  H      -31.221    -100.641     313.861
  H      -28.246    -101.060     311.822
  H      -28.689    -101.380     314.823
  H      -28.131    -103.599     314.730
  H      -29.213    -104.076     312.110
  H      -31.441    -104.027     313.300
  H      -30.221    -105.028     314.128
  P      -26.160    -104.975     313.715
  C      -26.389    -106.460     311.565
  O      -26.683    -106.276     312.942
  O      -26.073    -105.060     315.199
  O      -24.663    -104.773     313.148
  H      -24.059    -105.146     313.821
  H      -26.820    -107.380     311.228
  H      -25.328    -106.491     311.428
  H      -26.798    -105.647     311.001

 6  7  8  9  10  11  12  13  14  15  16  26  31  32  33  34  35 0
 6-311+G(2d,p)
 ****
 36  37 0
 6-311+G(2d,p)
 ****
 1  2  3  4  5  17  18  19  20  21  22  23  24  25 0
 3-21G
 ****
 27  28  29  30  38  39  40  41  42  43  44  45 0
 3-21G
 ****


