%nproc=1
%NoSave
%Mem=1900MB
#P OB98/GEN NMR

erre ene a

0 1
  C       74.790     313.851    -899.160
  O       74.462     314.788    -898.150
  H       74.722     312.845    -898.740
  H       75.819     314.019    -899.500
  H       74.093     313.932    -900.000
  P       74.329     316.326    -898.610
  C       73.447     318.494    -897.400
  O       73.732     317.106    -897.330
  C       72.814     318.967    -896.090
  O       71.511     318.323    -895.930
  C       73.645     318.665    -894.850
  O       73.486     319.727    -893.900
  C       72.983     317.403    -894.290
  O       73.242     317.232    -892.900
  C       71.514     317.657    -894.660
  N       70.716     316.430    -894.700
  C       69.842     316.199    -893.620
  O       69.776     317.032    -892.700
  N       69.108     315.041    -893.590
  C       69.276     314.152    -894.520
  N       68.535     313.006    -894.420
  C       70.223     314.324    -895.640
  C       70.888     315.467    -895.680
  O       73.090     316.262    -899.620
  O       75.574     316.904    -899.190
  H       72.662     316.526    -892.550
  H       72.346     315.724    -899.290
  H       70.338     313.535    -896.400
  H       71.593     315.687    -896.480
  H       71.038     318.336    -893.930
  H       73.356     316.504    -894.820
  H       74.700     318.508    -895.080
  H       72.615     320.048    -896.170
  H       67.914     312.927    -893.620
  H       72.750     318.693    -898.230
  H       68.630     312.231    -895.040
  H       74.379     319.035    -897.600
  P       74.804     320.456    -893.340
  C       75.566     322.866    -892.780
  O       74.476     322.007    -893.090
  O       76.073     320.178    -894.060
  O       74.891     319.893    -891.830
  H       75.838     319.722    -891.630
  H       75.205     323.863    -892.639
  H       76.271     322.852    -893.585
  H       76.042     322.529    -891.883

 6  7  8  9  10  11  12  13  14  15  16  26  30  31  32  33  35 0
 6-311+G(2d,p)
 ****
 37  38 0
 6-311+G(2d,p)
 ****
 1  2  3  4  5  17  18  19  20  21  22  23  24  25 0
 3-21G
 ****
 27  28  29  34  36  39  40  41  42  43  44  45  46 0
 3-21G
 ****


