%nproc=1
%NoSave
%Mem=1900MB
#P OB98/GEN NMR

erre ene a

0 1
  C      443.165     616.186     135.274
  O      443.787     617.417     134.943
  H      443.718     615.729     136.094
  H      443.195     615.508     134.416
  H      442.133     616.346     135.591
  P      443.105     618.347     133.821
  C      445.358     619.410     133.195
  O      444.044     619.646     133.672
  C      446.150     620.713     133.151
  O      445.388     621.704     132.417
  C      446.458     621.307     134.534
  O      447.771     621.874     134.505
  C      445.424     622.393     134.705
  O      445.859     623.428     135.580
  C      445.239     622.868     133.261
  N      442.626     627.164     133.741
  C      443.960     626.907     133.961
  N      444.716     627.943     134.413
  N      444.514     625.743     133.771
  C      443.649     624.802     133.316
  C      442.306     624.939     133.056
  C      441.700     626.224     133.286
  O      440.520     626.516     133.119
  N      441.757     623.745     132.633
  C      442.775     622.903     132.633
  N      443.939     623.483     133.052
  O      441.657     618.653     134.035
  O      443.352     617.549     132.458
  H      445.085     624.000     135.763
  H      442.549     617.064     132.192
  H      442.248     628.086     133.914
  H      442.712     621.848     132.357
  H      445.993     623.608     132.952
  H      444.493     621.975     135.099
  H      444.359     628.872     134.559
  H      446.405     620.554     135.339
  H      445.710     627.773     134.553
  H      447.081     620.545     132.581
  H      445.288     618.989     132.181
  H      445.868     618.687     133.849
  P      449.015     620.986     134.979
  C      450.859     622.698     135.547
  O      450.367     621.769     134.588
  O      448.974     619.544     134.574
  O      448.979     621.139     136.579
  H      449.347     620.324     136.977
  H      451.755     623.152     135.177
  H      451.070     622.187     136.463
  H      450.122     623.454     135.722

 6  7  8  9  10  11  12  13  14  15  26  29  33  34 0
 6-311+G(2d,p)
 ****
 36  38  39  40  41 0
 6-311+G(2d,p)
 ****
 1  2  3  4  5  16  17  18  19  20  21  22  23  24  25 0
 3-21G
 ****
 27  28  30  31  32  35  37  42  43  44  45  46  47 0
 3-21G
 ****
 48  49 0
 3-21G
 ****


