%nproc=1
%NoSave
%Mem=1900MB
#P OB98/GEN NMR

erre ene a

0 1
  C      -44.065    -405.292     -13.923
  O      -44.467    -406.542     -14.495
  P      -43.695    -407.848     -13.963
  C      -45.905    -409.181     -13.662
  O      -44.617    -409.131     -14.264
  C      -46.565    -410.549     -13.843
  O      -47.044    -410.671     -15.205
  C      -45.645    -411.746     -13.585
  O      -46.408    -412.787     -12.956
  C      -45.289    -412.226     -14.981
  O      -44.886    -413.591     -14.997
  C      -46.599    -411.939     -15.711
  N      -48.467    -413.586     -20.112
  C      -48.959    -413.742     -18.834
  N      -50.099    -414.457     -18.708
  N      -48.387    -413.239     -17.771
  C      -47.272    -412.521     -18.049
  C      -46.689    -412.287     -19.275
  C      -47.313    -412.885     -20.437
  O      -46.895    -412.827     -21.591
  N      -45.563    -411.512     -19.155
  C      -45.460    -411.285     -17.862
  N      -46.469    -411.883     -17.148
  O      -43.762    -407.687     -12.371
  O      -42.285    -407.951     -14.440
  H      -45.663    -414.122     -14.736
  H      -42.861    -407.705     -11.996
  H      -48.935    -414.011     -20.894
  H      -44.671    -410.720     -17.387
  H      -47.363    -412.688     -15.468
  H      -44.465    -411.620     -15.373
  H      -50.625    -414.813     -19.490
  H      -44.762    -411.517     -12.980
  H      -50.502    -414.541     -17.783
  H      -47.441    -410.595     -13.188
  H      -46.543    -408.414     -14.109
  H      -45.800    -408.950     -12.597
  P      -46.742    -412.587     -11.399
  C      -49.292    -413.033     -11.649
  O      -48.054    -413.462     -11.119
  O      -47.270    -411.077     -11.325
  O      -45.584    -412.831     -10.491
  H      -47.105    -410.705     -10.439
  H      -49.174    -412.226     -12.378
  H      -49.928    -412.681     -10.833
  H      -49.778    -413.880     -12.138
  H      -44.644    -404.501     -14.351
  H      -43.028    -405.124     -14.125
  H      -44.222    -405.317     -12.865

 3  4  5  6  7  8  9  10  11  12  23  26  30  31  33  0
 6-311+G(2d,p)
 ****
 35  36  37  38 0
 6-311+G(2d,p)
 ****
 1  2  13  14  15  16  17  18  19  20  21  22  24  25  27  28  29 0
 3-21G
 ****
 32  34  39  40  41  42  43  44  45  46  47  48  49 0
 3-21G
 ****


