%nproc=1
%NoSave
%Mem=1900MB
#P OB98/GEN NMR

erre ene a

0 1
  C      -97.205      34.301      23.125
  O      -97.658      33.636      24.312
  P      -96.812      33.594      25.676
  C      -95.491      31.395      25.422
  O      -95.432      32.814      25.424
  C      -94.850      30.798      24.164
  O      -93.447      31.197      24.081
  C      -94.892      29.261      24.096
  O      -95.138      28.919      22.728
  C      -93.480      28.887      24.519
  O      -93.105      27.571      24.156
  C      -92.694      29.995      23.812
  N      -91.306      30.149      24.235
  C      -90.337      29.374      23.587
  O      -90.645      28.548      22.728
  N      -89.020      29.538      23.942
  C      -88.696      30.389      24.864
  N      -87.374      30.508      25.160
  C      -89.683      31.209      25.585
  C      -90.953      31.042      25.223
  O      -97.584      33.069      26.843
  O      -96.355      35.106      25.942
  H      -96.359      35.279      26.902
  H      -93.004      27.544      23.187
  H      -89.369      31.912      26.343
  H      -91.738      31.630      25.687
  H      -92.730      29.831      22.728
  H      -93.408      28.966      25.608
  H      -95.676      28.816      24.717
  H      -95.350      31.232      23.290
  H      -86.723      29.934      24.636
  H      -96.542      31.092      25.459
  H      -87.009      31.144      25.855
  H      -94.994      31.015      26.322
  P      -96.479      28.131      22.337
  C      -95.399      25.834      22.926
  O      -96.468      26.736      23.125
  O      -96.157      27.661      20.835
  O      -97.745      28.923      22.367
  H      -96.995      27.535      20.354
  H      -95.082      25.446      23.898
  H      -94.541      26.308      22.442
  H      -95.744      25.002      22.307
  H      -97.937      34.191      22.353
  H      -96.281      33.868      22.804
  H      -97.059      35.341      23.332

 3  4  5  6  7  8  9  10  11  12  13  24  27  28  29  30  32 0
 6-311+G(2d,p)
 ****
 34  35 0
 6-311+G(2d,p)
 ****
 1  2  14  15  16  17  18  19  20  21  22  23  25  26 0
 3-21G
 ****
 31  33  36  37  38  39  40  41  42  43  44  45  46 0
 3-21G
 ****


