%nproc=1
%NoSave
%Mem=1900MB
#P OB98/GEN NMR

erre ene a

0 1
  C      241.033    -928.852     541.299
  O      239.875    -929.676     541.385
  P      239.535    -930.739     540.226
  C      239.337    -932.512     542.100
  O      239.927    -932.164     540.841
  C      238.392    -933.695     541.912
  O      239.138    -934.854     541.494
  C      237.655    -934.112     543.177
  O      236.592    -933.219     543.465
  C      237.236    -935.533     542.818
  O      236.066    -935.508     541.964
  C      238.457    -936.019     542.003
  N      239.358    -936.859     542.794
  C      238.899    -938.132     543.130
  O      237.788    -938.525     542.772
  N      239.734    -938.966     543.855
  C      240.908    -938.549     544.218
  N      241.707    -939.433     544.876
  C      241.406    -937.195     543.931
  C      240.598    -936.409     543.214
  O      240.174    -930.439     538.902
  O      237.938    -930.798     540.185
  H      236.341    -935.060     541.136
  H      237.540    -930.122     539.578
  H      242.396    -936.892     544.264
  H      240.901    -935.409     542.935
  H      238.126    -936.597     541.136
  H      237.002    -936.150     543.680
  H      238.342    -934.136     544.035
  H      237.672    -933.442     541.116
  H      241.392    -940.398     544.890
  H      238.768    -931.644     542.460
  H      242.709    -939.291     544.935
  H      240.130    -932.744     542.811
  P      236.403    -932.764     544.992
  C      237.304    -930.410     544.430
  O      237.432    -931.550     545.233
  O      237.017    -933.982     545.820
  O      234.976    -932.470     545.384
  H      236.301    -934.555     546.167
  H      237.913    -929.595     544.869
  H      236.262    -930.066     544.386
  H      237.663    -930.608     543.412
  H      241.084    -928.217     542.159
  H      240.979    -928.252     540.415
  H      241.907    -929.468     541.258

 3  4  5  6  7  8  9  10  11  12  13  23  27  28  29  30  32 0
 6-311+G(2d,p)
 ****
 34  35 0
 6-311+G(2d,p)
 ****
 1  2  14  15  16  17  18  19  20  21  22  24  25  26 0
 3-21G
 ****
 31  33  36  37  38  39  40  41  42  43  44  45  46 0
 3-21G
 ****


