%nproc=1
%NoSave
%Mem=1900MB
#P OB98/GEN NMR

erre ene a

0 1
  C     -328.119     -92.591      88.429
  O     -328.422     -92.716      87.037
  P     -327.191     -92.960      86.033
  C     -326.401     -95.450      85.906
  O     -327.346     -94.473      85.508
  C     -327.016     -96.856      85.860
  O     -328.037     -96.981      86.894
  C     -327.663     -97.217      84.516
  O     -327.398     -98.611      84.289
  C     -329.144     -96.999      84.780
  O     -329.960     -97.725      83.874
  C     -329.237     -97.450      86.242
  N     -330.439     -96.954      86.908
  C     -331.640     -97.581      86.593
  O     -331.730     -98.458      85.736
  N     -332.745     -97.131      87.264
  C     -332.779     -96.081      88.140
  O     -333.797     -95.722      88.714
  C     -331.499     -95.383      88.349
  C     -330.409     -95.845      87.730
  O     -325.961     -93.014      87.048
  O     -327.094     -91.918      84.968
  H     -326.172     -93.449      87.893
  H     -329.930     -97.291      82.996
  H     -333.621     -97.594      87.072
  H     -331.498     -94.511      88.989
  H     -329.456     -95.341      87.845
  H     -329.235     -98.545      86.306
  H     -329.384     -95.932      84.687
  H     -327.274     -96.626      83.682
  H     -326.225     -97.579      86.097
  H     -326.065     -95.251      86.931
  H     -325.514     -95.384      85.260
  P     -326.916     -99.064      82.821
  C     -324.396     -98.341      82.752
  O     -325.347     -99.373      82.915
  O     -326.958     -97.646      82.065
  O     -327.772    -100.095      82.162
  H     -326.535     -96.934      82.570
  H     -323.423     -98.704      83.085
  H     -324.664     -97.463      83.347
  H     -324.331     -98.061      81.697
  H     -329.024     -92.433      88.978
  H     -327.462     -91.760      88.578
  H     -327.645     -93.487      88.773

 3  4  5  6  7  8  9  10  11  12  13  24  28  29  30  31  32 0
 6-311+G(2d,p)
 ****
 33  34 0
 6-311+G(2d,p)
 ****
 1  2  14  15  16  17  18  19  20  21  22  23  25  26  27 0
 3-21G
 ****
 35  36  37  38  39  40  41  42  43  44  45 0
 3-21G
 ****


