%nproc=1
%NoSave
%Mem=1900MB
#P OB98/GEN NMR

erre ene a

0 1
  C     1157.866    1319.424     186.071
  O     1158.406    1319.545     187.373
  H     1158.061    1318.411     185.694
  H     1158.354    1320.141     185.394
  H     1156.796    1319.599     186.081
  P     1158.049    1320.887     188.183
  C     1156.597    1319.543     189.863
  O     1156.649    1320.619     188.916
  C     1155.784    1319.960     191.094
  O     1154.469    1320.418     190.687
  C     1155.553    1318.841     192.100
  O     1156.655    1318.673     192.965
  C     1154.333    1319.385     192.847
  O     1154.765    1320.406     193.776
  C     1153.521    1319.994     191.697
  N     1148.740    1318.347     191.881
  C     1149.377    1319.275     192.665
  N     1148.640    1319.856     193.661
  N     1150.623    1319.638     192.514
  C     1151.232    1318.965     191.495
  C     1150.712    1318.022     190.652
  C     1149.315    1317.649     190.833
  O     1148.686    1316.852     190.139
  N     1151.642    1317.578     189.740
  C     1152.739    1318.246     190.052
  N     1152.550    1319.084     191.123
  O     1157.649    1321.922     187.014
  O     1159.141    1321.428     189.039
  H     1155.438    1320.022     194.352
  H     1157.960    1322.814     187.270
  H     1147.766    1318.102     192.049
  H     1153.680    1318.144     189.537
  H     1152.969    1320.890     192.030
  H     1153.833    1318.612     193.437
  H     1147.690    1319.597     193.845
  H     1155.285    1317.897     191.609
  H     1149.088    1320.561     194.224
  H     1156.293    1320.804     191.558
  H     1157.615    1319.292     190.177
  H     1156.136    1318.667     189.379
  P     1156.818    1317.247     193.708
  C     1159.125    1316.949     192.566
  O     1157.835    1316.403     192.804
  O     1155.404    1316.546     193.442
  O     1157.153    1317.338     195.167
  H     1155.249    1315.865     194.123
  H     1159.688    1316.278     191.951
  H     1159.631    1317.088     193.498
  H     1159.027    1317.892     192.069

 6  7  8  9  10  11  12  13  14  15  26  29  33  34 0
 6-311+G(2d,p)
 ****
 36  38  39  40  41 0
 6-311+G(2d,p)
 ****
 1  2  3  4  5  16  17  18  19  20  21  22  23  24  25 0
 3-21G
 ****
 27  28  30  31  32  35  37  42  43  44  45  46  47 0
 3-21G
 ****
 48  49 0
 3-21G
 ****


