%nproc=1
%NoSave
%Mem=1900MB
#P OB98/GEN NMR

erre ene a

0 1
  C      248.283     129.289    -395.192
  O      248.718     129.383    -393.849
  H      249.063     129.649    -395.870
  H      248.072     128.241    -395.419
  H      247.370     129.873    -395.334
  P      249.182     130.836    -393.353
  C      248.751     132.294    -391.252
  O      248.556     131.039    -391.887
  C      248.809     132.114    -389.740
  O      247.588     131.511    -389.259
  C      249.929     131.201    -389.246
  O      251.186     131.870    -389.220
  C      249.436     130.884    -387.844
  O      249.754     131.975    -386.958
  C      247.912     130.794    -388.041
  N      247.676     126.185    -385.786
  C      248.259     127.345    -385.407
  N      248.291     128.524    -386.059
  C      247.617     128.446    -387.223
  C      246.977     127.339    -387.737
  C      247.022     126.158    -386.972
  N      246.441     124.979    -387.376
  N      246.382     127.638    -388.943
  C      246.656     128.905    -389.156
  N      247.413     129.439    -388.145
  O      248.321     131.835    -394.264
  O      250.645     131.114    -393.468
  H      250.720     132.093    -386.998
  H      248.861     132.625    -394.467
  H      248.767     127.324    -384.446
  H      246.337     129.475    -390.022
  H      247.372     131.294    -387.225
  H      249.883     129.980    -387.426
  H      249.976     130.280    -389.834
  H      248.891     133.111    -389.285
  H      247.920     132.959    -391.503
  H      246.336     124.236    -386.704
  H      245.944     124.970    -388.265
  H      249.685     132.732    -391.621
  P      252.496     130.969    -389.001
  C      254.953     131.803    -388.898
  O      253.713     131.827    -389.598
  O      252.315     129.795    -390.076
  O      252.676     130.437    -387.620
  H      252.803     128.998    -389.787
  H      255.664     132.417    -389.411
  H      255.317     130.798    -388.852
  H      254.810     132.176    -387.906

 6  7  8  9  10  11  12  13  14  15  25  28  32  33  34  35 0
 6-311+G(2d,p)
 ****
 36  39  40 0
 6-311+G(2d,p)
 ****
 1  2  3  4  5  16  17  18  19  20  21  22  23  24 0
 3-21G
 ****
 26  27  29  30  31  37  38  41  42  43  44  45  46  47  48 0
 3-21G
 ****


