%nproc=1
%NoSave
%Mem=1900MB
#P OB98/GEN NMR

erre ene a

0 1
  C     -349.473     -92.466    -193.279
  O     -350.561     -93.337    -192.920
  P     -351.734     -92.921    -191.910
  C     -352.274     -93.070    -189.387
  O     -351.347     -93.398    -190.425
  C     -352.315     -94.142    -188.298
  O     -352.806     -95.413    -188.852
  C     -350.955     -94.439    -187.625
  O     -351.216     -94.656    -186.239
  C     -350.524     -95.720    -188.331
  O     -349.518     -96.444    -187.643
  C     -351.878     -96.437    -188.415
  N     -351.922     -97.585    -189.312
  C     -352.559     -98.749    -188.846
  O     -353.001     -98.822    -187.708
  N     -352.653     -99.835    -189.689
  C     -352.150     -99.761    -190.889
  N     -352.291    -100.875    -191.680
  C     -351.467     -98.574    -191.420
  C     -351.388     -97.538    -190.587
  O     -353.089     -93.363    -192.347
  O     -351.660     -91.317    -191.822
  H     -352.580     -90.965    -191.737
  H     -349.190     -97.140    -188.249
  H     -351.078     -98.559    -192.429
  H     -350.923     -96.605    -190.905
  H     -352.190     -96.745    -187.411
  H     -350.133     -95.464    -189.321
  H     -350.239     -93.614    -187.725
  H     -353.048     -93.837    -187.544
  H     -352.778    -101.669    -191.290
  H     -353.277     -92.976    -189.831
  H     -351.951    -100.923    -192.631
  H     -352.001     -92.099    -188.961
  P     -350.411     -93.828    -185.131
  C     -348.564     -94.353    -183.362
  O     -349.432     -94.840    -184.365
  O     -351.542     -93.564    -184.023
  O     -349.820     -92.529    -185.582
  H     -351.323     -92.760    -183.528
  H     -348.596     -95.023    -182.502
  H     -348.838     -93.342    -183.033
  H     -347.535     -94.331    -183.760
  H     -348.824     -92.970    -193.964
  H     -348.925     -92.198    -192.400
  H     -349.861     -91.582    -193.740

 3  4  5  6  7  8  9  10  11  12  13  24  27  28  29  30  32 0
 6-311+G(2d,p)
 ****
 34  35 0
 6-311+G(2d,p)
 ****
 1  2  14  15  16  17  18  19  20  21  22  23  25  26 0
 3-21G
 ****
 31  33  36  37  38  39  40  41  42  43  44  45  46 0
 3-21G
 ****


