%nproc=1
%NoSave
%Mem=1900MB
#P OB98/GEN NMR

erre ene a

0 1
  C       48.378    -220.353     461.554
  O       47.943    -221.677     461.888
  P       46.976    -221.807     463.160
  C       48.974    -221.576     464.803
  O       47.853    -222.348     464.391
  C       49.073    -221.534     466.335
  O       47.924    -220.900     466.942
  C       49.155    -222.918     466.973
  O       50.489    -223.413     466.870
  C       48.741    -222.630     468.407
  O       49.848    -222.154     469.194
  C       47.686    -221.519     468.229
  N       44.184    -223.796     471.112
  C       45.543    -223.638     471.323
  N       46.036    -224.150     472.468
  N       46.345    -223.047     470.474
  C       45.717    -222.592     469.365
  C       44.374    -222.655     469.062
  C       43.498    -223.318     469.998
  O       42.285    -223.454     469.870
  N       44.097    -222.024     467.870
  C       45.292    -221.695     467.401
  N       46.298    -221.956     468.303
  O       46.026    -223.038     462.778
  O       46.179    -220.564     463.429
  H       49.566    -222.075     470.125
  H       45.121    -222.722     462.607
  H       43.612    -224.263     471.793
  H       45.475    -221.238     466.443
  H       47.802    -220.732     468.992
  H       48.368    -223.526     468.909
  H       45.476    -224.621     473.168
  H       48.440    -223.602     466.497
  H       47.026    -224.040     472.654
  H       49.965    -220.951     466.591
  H       48.890    -220.557     464.413
  H       49.875    -222.008     464.371
  P       50.797    -224.502     465.740
  C       50.097    -226.505     467.243
  O       51.117    -225.893     466.475
  O       52.213    -224.038     465.164
  O       49.770    -224.582     464.652
  H       52.205    -224.081     464.182
  H       50.245    -227.585     467.226
  H       49.099    -226.278     466.846
  H       50.164    -226.149     468.278
  H       49.014    -220.393     460.694
  H       48.918    -219.937     462.378
  H       47.527    -219.741     461.340

 3  4  5  6  7  8  9  10  11  12  23  26  30  31 0
 6-311+G(2d,p)
 ****
 33  35  36  37  38 0
 6-311+G(2d,p)
 ****
 1  2  13  14  15  16  17  18  19  20  21  22  24  25 0
 3-21G
 ****
 27  28  29  32  34  39  40  41  42  43  44  45  46  47  48  49 0
 3-21G
 ****


