%nproc=1
%NoSave
%Mem=1900MB
#P OB98/GEN NMR

erre ene a

0 1
  C      907.567     643.120     104.484
  O      907.833     644.368     103.865
  H      906.526     642.859     104.292
  H      907.709     643.194     105.568
  H      908.212     642.354     104.069
  P      909.288     644.998     104.132
  C      908.317     647.229     103.155
  O      909.003     646.585     104.227
  C      908.096     648.700     103.477
  O      907.054     648.850     104.469
  C      909.317     649.411     104.065
  O      910.305     649.737     103.109
  C      908.642     650.644     104.662
  O      908.316     651.557     103.597
  C      907.378     650.011     105.289
  N      907.561     649.614     106.685
  C      907.509     650.644     107.639
  O      907.337     651.809     107.297
  N      907.727     650.324     108.969
  C      907.927     649.073     109.312
  N      908.122     648.830     110.641
  C      907.981     647.960     108.347
  C      907.792     648.311     107.060
  O      910.023     644.859     102.715
  O      910.039     644.436     105.283
  H      907.713     652.233     103.982
  H      910.881     645.352     102.725
  H      908.175     646.951     108.667
  H      907.809     647.541     106.283
  H      906.531     650.709     105.236
  H      909.280     651.179     105.367
  H      909.751     648.813     104.887
  H      907.763     649.200     102.553
  H      908.155     649.626     111.275
  H      907.359     646.728     103.014
  H      908.440     647.934     110.985
  H      908.905     647.135     102.238
  P      911.840     649.644     103.555
  C      912.345     650.573     101.159
  O      912.676     650.576     102.556
  O      912.262     648.148     103.097
  O      912.103     649.869     105.023
  H      912.907     647.754     103.724
  H      912.994     651.245     100.637
  H      911.330     650.887     101.032
  H      912.464     649.585     100.766

 6  7  8  9  10  11  12  13  14  15  16  26  30  31  32  33  35 0
 6-311+G(2d,p)
 ****
 37  38 0
 6-311+G(2d,p)
 ****
 1  2  3  4  5  17  18  19  20  21  22  23  24  25 0
 3-21G
 ****
 27  28  29  34  36  39  40  41  42  43  44  45  46 0
 3-21G
 ****


