%nproc=1
%NoSave
%Mem=1900MB
#P OB98/GEN NMR

erre ene a

0 1
  C      483.892    -159.975       1.203
  O      484.632    -160.347       2.344
  P      484.824    -161.854       2.822
  C      484.606    -163.105       5.110
  O      484.214    -162.004       4.297
  C      483.449    -163.564       6.008
  O      483.040    -162.448       6.842
  C      482.221    -163.978       5.181
  O      481.567    -165.148       5.655
  C      481.402    -162.694       5.125
  O      480.032    -162.907       4.813
  C      481.687    -162.085       6.495
  N      478.875    -158.020       5.319
  C      478.529    -159.356       5.279
  N      477.356    -159.650       4.681
  N      479.290    -160.311       5.751
  C      480.482    -159.876       6.215
  C      480.935    -158.580       6.307
  C      480.072    -157.532       5.815
  O      480.384    -156.344       5.724
  N      482.224    -158.521       6.769
  C      482.567    -159.783       6.924
  N      481.555    -160.646       6.570
  O      486.152    -162.481       2.544
  O      483.723    -162.625       1.924
  H      479.597    -163.251       5.614
  H      484.089    -163.511       1.720
  H      478.282    -157.336       4.865
  H      483.538    -160.130       7.260
  H      481.025    -162.490       7.260
  H      481.818    -162.073       4.324
  H      476.821    -158.952       4.181
  H      482.518    -164.250       4.162
  H      477.199    -160.618       4.417
  H      483.800    -164.366       6.668
  H      485.442    -162.750       5.723
  H      484.968    -163.930       4.492
  P      481.406    -166.565       4.940
  C      479.750    -167.720       3.354
  O      480.003    -166.591       4.168
  O      481.171    -167.609       6.131
  O      482.575    -166.984       4.110
  H      481.648    -168.436       5.937
  H      478.919    -167.494       2.685
  H      479.480    -168.573       3.983
  H      480.633    -167.971       2.754
  H      483.913    -158.911       1.096
  H      482.879    -160.303       1.312
  H      484.322    -160.429       0.335

 3  4  5  6  7  8  9  10  11  12  23  26  30  31 0
 6-311+G(2d,p)
 ****
 33  35  36  37  38 0
 6-311+G(2d,p)
 ****
 1  2  13  14  15  16  17  18  19  20  21  22  24  25 0
 3-21G
 ****
 27  28  29  32  34  39  40  41  42  43  44  45  46  47  48  49 0
 3-21G
 ****


