%nproc=1
%NoSave
%Mem=1900MB
#P OB98/GEN NMR

erre ene a

0 1
  C      -65.755      -7.220     291.008
  O      -65.748      -5.939     290.414
  H      -64.965      -7.827     290.552
  H      -66.715      -7.719     290.847
  H      -65.555      -7.135     292.083
  P      -66.912      -4.903     290.786
  C      -68.433      -5.632     288.843
  O      -67.684      -4.568     289.418
  C      -67.963      -5.918     287.410
  O      -68.725      -5.080     286.499
  C      -66.472      -5.620     287.184
  O      -65.944      -6.609     286.290
  C      -66.501      -4.260     286.520
  O      -65.328      -4.024     285.755
  C      -67.799      -4.316     285.708
  N      -68.304      -2.978     285.418
  C      -67.770      -2.339     284.285
  O      -66.927      -2.914     283.587
  N      -68.137      -1.048     284.010
  C      -68.933      -0.420     284.824
  N      -69.232       0.872     284.514
  C      -69.502      -1.035     286.041
  C      -69.153      -2.303     286.269
  O      -66.494      -3.706     291.576
  O      -67.971      -5.801     291.593
  H      -64.546      -4.004     286.365
  H      -67.773      -5.776     292.553
  H      -70.153      -0.469     286.689
  H      -69.508      -2.840     287.148
  H      -67.646      -4.850     284.758
  H      -66.562      -3.476     287.280
  H      -65.889      -5.615     288.113
  H      -68.201      -6.957     287.163
  H      -68.794       1.269     283.678
  H      -69.493      -5.335     288.831
  H      -69.801       1.482     285.088
  H      -68.330      -6.538     289.452
  P      -64.923      -7.730     286.822
  C      -62.975      -6.638     285.581
  O      -63.692      -7.849     285.790
  O      -65.560      -9.040     287.180
  O      -64.254      -7.051     288.120
  H      -64.014      -7.750     288.754
  H      -62.180      -6.810     284.886
  H      -62.568      -6.299     286.511
  H      -63.637      -5.894     285.189

 6  7  8  9  10  11  12  13  14  15  16  26  30  31  32  33  35 0
 6-311+G(2d,p)
 ****
 37  38 0
 6-311+G(2d,p)
 ****
 1  2  3  4  5  17  18  19  20  21  22  23  24  25 0
 3-21G
 ****
 27  28  29  34  36  39  40  41  42  43  44  45  46 0
 3-21G
 ****


