%nproc=1
%NoSave
%Mem=1900MB
#P OB98/GEN NMR

erre ene a

0 1
  C      -26.606     175.283    -307.685
  O      -25.807     176.081    -306.833
  H      -27.515     174.968    -307.164
  H      -26.892     175.876    -308.558
  H      -26.045     174.408    -308.022
  P      -25.272     175.392    -305.487
  C      -22.963     174.996    -306.612
  O      -24.076     174.421    -305.940
  C      -21.721     174.897    -305.729
  O      -21.817     175.834    -304.634
  C      -21.519     173.528    -305.088
  O      -20.915     172.604    -305.975
  C      -20.578     173.892    -303.951
  O      -19.246     174.082    -304.462
  C      -21.164     175.235    -303.478
  N      -21.758     174.362    -298.473
  C      -20.659     174.414    -299.256
  N      -20.588     174.645    -300.583
  C      -21.810     174.841    -301.098
  C      -23.020     174.812    -300.430
  C      -22.968     174.566    -299.048
  N      -24.090     174.497    -298.246
  N      -24.069     175.021    -301.305
  C      -23.496     175.205    -302.477
  N      -22.131     175.096    -302.404
  O      -26.440     174.369    -305.097
  O      -24.932     176.323    -304.373
  H      -18.703     174.402    -303.715
  H      -26.380     174.139    -304.151
  H      -19.713     174.243    -298.746
  H      -24.020     175.420    -303.400
  H      -20.391     175.933    -303.138
  H      -20.522     173.123    -303.180
  H      -22.450     173.136    -304.672
  H      -20.851     175.178    -306.337
  H      -23.173     176.050    -306.825
  H      -23.957     174.136    -297.315
  H      -24.996     174.496    -298.691
  H      -22.801     174.467    -307.559
  P      -20.800     171.077    -305.490
  C      -22.930     170.319    -306.776
  O      -22.296     170.502    -305.512
  O      -20.476     171.218    -303.931
  O      -19.775     170.268    -306.216
  H      -19.992     170.438    -303.605
  H      -23.916     169.932    -306.628
  H      -22.361     169.629    -307.364
  H      -22.988     171.258    -307.285

 6  7  8  9  10  11  12  13  14  15  25  28  32  33  34  35 0
 6-311+G(2d,p)
 ****
 36  39  40 0
 6-311+G(2d,p)
 ****
 1  2  3  4  5  16  17  18  19  20  21  22  23  24 0
 3-21G
 ****
 26  27  29  30  31  37  38  41  42  43  44  45  46  47 0
 3-21G
 ****
 48 0
 3-21G
 ****


