%nproc=1
%NoSave
%Mem=1900MB
#P OB98/GEN NMR

erre ene a

0 1
  C      -70.093     429.188    -684.482
  O      -71.475     429.014    -684.732
  H      -69.738     430.122    -684.926
  H      -69.936     429.226    -683.399
  H      -69.530     428.342    -684.889
  P      -71.926     429.041    -686.271
  C      -73.290     431.158    -685.655
  O      -72.404     430.544    -686.581
  C      -73.453     432.637    -685.984
  O      -72.240     433.353    -685.677
  C      -73.730     432.934    -687.456
  O      -75.091     432.706    -687.796
  C      -73.381     434.414    -687.514
  O      -74.487     435.194    -687.009
  C      -72.191     434.513    -686.553
  N      -68.037     437.343    -687.577
  C      -69.156     437.620    -686.873
  N      -70.220     436.821    -686.652
  C      -70.052     435.617    -687.230
  C      -68.960     435.201    -687.976
  C      -67.912     436.124    -688.148
  N      -66.781     435.845    -688.882
  N      -69.125     433.896    -688.395
  C      -70.300     433.536    -687.920
  N      -70.896     434.544    -687.206
  O      -73.297     428.207    -686.275
  O      -70.937     428.471    -687.238
  H      -74.202     436.125    -687.035
  H      -73.354     427.699    -687.106
  H      -69.201     438.607    -686.428
  H      -70.747     432.556    -688.051
  H      -72.263     435.394    -685.903
  H      -73.168     434.766    -688.524
  H      -73.049     432.371    -688.109
  H      -74.254     433.041    -685.352
  H      -72.883     431.059    -684.646
  H      -65.991     436.464    -688.810
  H      -66.698     434.926    -689.304
  H      -74.260     430.650    -685.699
  P      -75.467     432.674    -689.363
  C      -77.400     434.355    -688.973
  O      -76.191     434.070    -689.661
  O      -76.675     431.616    -689.418
  O      -74.354     432.292    -690.272
  H      -76.725     431.218    -690.308
  H      -77.763     435.316    -689.273
  H      -77.219     434.356    -687.918
  H      -78.129     433.608    -689.209

 6  7  8  9  10  11  12  13  14  15  25  28  32  33  34  35 0
 6-311+G(2d,p)
 ****
 36  39  40 0
 6-311+G(2d,p)
 ****
 1  2  3  4  5  16  17  18  19  20  21  22  23  24 0
 3-21G
 ****
 26  27  29  30  31  37  38  41  42  43  44  45  46  47  48 0
 3-21G
 ****


