%nproc=1
%NoSave
%Mem=1900MB
#P OB98/GEN NMR

erre ene a

0 1
  C       55.025      -8.912     -21.378
  O       54.554      -8.934     -20.045
  H       54.593      -9.759     -21.916
  H       56.114      -9.006     -21.389
  H       54.724      -7.985     -21.874
  P       54.928      -7.670     -19.126
  C       54.518      -8.747     -16.767
  O       54.084      -7.852     -17.775
  C       53.333      -9.226     -15.925
  O       52.480     -10.055     -16.753
  C       53.742     -10.049     -14.702
  O       52.834      -9.759     -13.638
  C       53.534     -11.483     -15.162
  O       53.348     -12.376     -14.067
  C       52.321     -11.327     -16.092
  N       52.209     -12.423     -17.051
  C       51.187     -13.351     -16.829
  O       50.441     -13.231     -15.856
  N       51.057     -14.413     -17.686
  C       51.914     -14.575     -18.644
  N       51.746     -15.663     -19.444
  C       53.035     -13.647     -18.890
  C       53.116     -12.600     -18.071
  O       54.177      -6.480     -19.887
  O       56.392      -7.456     -18.940
  H       54.124     -12.303     -13.469
  H       53.273      -6.705     -20.161
  H       53.730     -13.830     -19.695
  H       53.902     -11.863     -18.183
  H       51.392     -11.284     -15.508
  H       54.406     -11.826     -15.730
  H       54.766      -9.851     -14.380
  H       52.740      -8.353     -15.632
  H       50.978     -16.286     -19.226
  H       55.252      -8.261     -16.117
  H       52.383     -15.918     -20.183
  H       55.006      -9.597     -17.255
  P       53.399      -9.538     -12.157
  C       52.146     -11.483     -11.002
  O       52.327     -10.075     -11.094
  O       53.956      -8.185     -11.872
  O       54.561     -10.647     -12.057
  H       55.318     -10.243     -11.590
  H       51.407     -11.700     -10.259
  H       53.072     -11.945     -10.729
  H       51.823     -11.864     -11.948

 6  7  8  9  10  11  12  13  14  15  16  26  30  31  32  33  35 0
 6-311+G(2d,p)
 ****
 37  38 0
 6-311+G(2d,p)
 ****
 1  2  3  4  5  17  18  19  20  21  22  23  24  25 0
 3-21G
 ****
 27  28  29  34  36  39  40  41  42  43  44  45  46 0
 3-21G
 ****


