%nproc=1
%NoSave
%Mem=1900MB
#P OB98/GEN NMR

erre ene a

0 1
  C      134.778    -114.848      49.056
  O      134.868    -115.828      48.041
  H      135.788    -114.581      49.376
  H      134.227    -115.244      49.912
  H      134.281    -113.952      48.674
  P      133.482    -116.343      47.422
  C      134.439    -116.906      45.064
  O      133.871    -117.390      46.272
  C      135.075    -118.056      44.275
  O      136.256    -118.519      44.995
  C      134.156    -119.276      44.102
  O      134.523    -119.935      42.879
  C      134.560    -120.138      45.287
  O      134.074    -121.452      45.146
  C      136.072    -119.930      45.244
  N      138.115    -123.823      47.851
  C      137.576    -123.754      46.615
  N      137.063    -122.679      45.984
  C      137.164    -121.582      46.754
  C      137.698    -121.496      48.029
  C      138.188    -122.689      48.587
  N      138.730    -122.765      49.848
  N      137.623    -120.199      48.503
  C      137.055    -119.516      47.528
  N      136.754    -120.312      46.457
  O      132.944    -115.071      46.614
  O      132.482    -116.840      48.411
  H      133.105    -121.483      45.294
  H      132.321    -114.565      47.168
  H      137.550    -124.688      46.060
  H      136.832    -118.457      47.549
  H      136.535    -120.477      44.416
  H      134.138    -119.744      46.216
  H      133.094    -119.019      44.073
  H      135.424    -117.677      43.307
  H      135.201    -116.160      45.313
  H      133.659    -116.436      44.457
  H      139.045    -123.662      50.181
  H      138.774    -121.931      50.414
  P      133.366    -120.463      41.896
  C      135.025    -120.228      39.887
  O      134.045    -121.012      40.551
  O      132.705    -119.090      41.395
  O      132.338    -121.347      42.520
  H      131.768    -119.243      41.169
  H      135.366    -120.746      39.015
  H      135.851    -120.056      40.546
  H      134.597    -119.290      39.600

 6  7  8  9  10  11  12  13  14  15  25  28  32  33  34  35 0
 6-311+G(2d,p)
 ****
 36  37  40 0
 6-311+G(2d,p)
 ****
 1  2  3  4  5  16  17  18  19  20  21  22  23  24 0
 3-21G
 ****
 26  27  29  30  31  38  39 41  42  43  44  45  46  47  48 0
 3-21G
 ****


