%nproc=1
%NoSave
%Mem=1900MB
#P OB98/GEN NMR

erre ene a

0 1
  C      -38.107     -51.872     -11.917
  O      -38.487     -51.594     -13.251
  P      -40.037     -51.308     -13.542
  C      -40.567     -53.140     -15.320
  O      -40.704     -52.699     -13.976
  C      -41.846     -53.854     -15.760
  O      -42.259     -54.810     -14.760
  C      -43.032     -52.918     -15.947
  O      -42.959     -52.229     -17.184
  C      -44.204     -53.885     -15.860
  O      -44.439     -54.527     -17.123
  C      -43.699     -54.904     -14.817
  N      -44.307     -54.712     -13.505
  C      -45.178     -55.714     -13.085
  O      -45.448     -56.697     -13.775
  N      -45.760     -55.527     -11.862
  C      -45.606     -54.435     -11.058
  O      -46.199     -54.300      -9.995
  C      -44.696     -53.394     -11.566
  C      -44.105     -53.575     -12.749
  O      -40.023     -50.453     -14.894
  O      -40.753     -50.597     -12.443
  H      -45.116     -55.214     -16.965
  H      -40.740     -49.791     -14.875
  H      -46.373     -56.253     -11.529
  H      -44.551     -52.514     -10.954
  H      -43.443     -52.813     -13.147
  H      -43.920     -55.925     -15.151
  H      -45.134     -53.383     -15.578
  H      -43.087     -52.212     -15.110
  H      -41.636     -54.400     -16.689
  H      -39.718     -53.826     -15.390
  H      -40.367     -52.277     -15.961
  P      -43.647     -50.779     -17.251
  C      -46.083     -51.522     -17.831
  O      -45.181     -51.029     -16.865
  O      -43.648     -50.523     -18.831
  O      -42.919     -49.752     -16.451
  H      -43.752     -51.347     -19.337
  H      -45.598     -52.233     -18.505
  H      -46.486     -50.688     -18.410
  H      -46.906     -52.028     -17.319
  H      -37.051     -52.041     -11.875
  H      -38.622     -52.745     -11.574
  H      -38.360     -51.040     -11.293

 3  4  5  6  7  8  9  10  11  12  13  23  28  29  30  31  32 0
 6-311+G(2d,p)
 ****
 33  34 0
 6-311+G(2d,p)
 ****
 1  2  14  15  16  17  18  19  20  21  22  24  25  26 0
 3-21G
 ****
 27  35  36  37  38  39  40  41  42  43  44  45 0
 3-21G
 ****


