%nproc=1
%NoSave
%Mem=1900MB
#P OB98/GEN NMR

erre ene a

0 1
  C      487.402      94.322    -175.659
  O      488.499      93.780    -174.959
  H      486.607      94.546    -174.942
  H      487.026      93.593    -176.381
  H      487.677      95.245    -176.176
  P      489.910      93.660    -175.707
  C      490.334      96.179    -175.320
  O      490.273      95.120    -176.265
  C      491.011      97.412    -175.927
  O      492.428      97.141    -176.089
  C      490.458      97.731    -177.321
  O      490.555      99.118    -177.634
  C      491.388      96.951    -178.236
  O      491.419      97.461    -179.570
  C      492.716      97.073    -177.495
  N      495.726      94.753    -180.896
  C      494.802      95.759    -181.092
  N      494.661      96.208    -182.362
  N      494.064      96.263    -180.137
  C      494.257      95.670    -178.933
  C      495.126      94.651    -178.619
  C      495.964      94.123    -179.679
  O      496.782      93.217    -179.565
  N      495.036      94.304    -177.293
  C      494.111      95.107    -176.807
  N      493.624      95.973    -177.759
  O      489.559      92.855    -177.048
  O      490.999      92.985    -174.931
  H      490.512      97.403    -179.926
  H      490.357      92.427    -177.406
  H      496.291      94.424    -181.660
  H      493.770      95.117    -175.779
  H      493.232      98.000    -177.777
  H      491.027      95.918    -178.295
  H      495.063      95.714    -183.145
  H      489.426      97.408    -177.446
  H      493.790      96.704    -182.575
  H      490.927      98.263    -175.240
  H      490.902      95.810    -174.462
  H      489.333      96.425    -174.962
  P      489.257      99.871    -178.193
  C      488.441     100.893    -175.892
  O      488.197     100.074    -177.016
  O      488.569      98.784    -179.144
  O      489.546     101.147    -178.920
  H      488.570      99.088    -180.071
  H      487.590     100.872    -175.244
  H      488.619     101.898    -176.215
  H      489.299     100.530    -175.366

 6  7  8  9  10  11  12  13  14  15  26  29  33  34 0
 6-311+G(2d,p)
 ****
 36  38  39  40  41 0
 6-311+G(2d,p)
 ****
 1  2  3  4  5  16  17  18  19  20  21  22  23  24  25 0
 3-21G
 ****
 27  28  30  31  32  35  37  42  43  44  45  46  47 0
 3-21G
 ****
 48  49 0
 3-21G
 ****


