%nproc=1
%NoSave
%Mem=1900MB
#P OB98/GEN NMR

erre ene a

0 1
  C     -200.004     471.565     114.919
  O     -200.923     472.431     115.540
  P     -202.008     473.290     114.744
  C     -203.911     471.648     115.466
  O     -203.259     472.346     114.412
  C     -205.437     471.709     115.306
  O     -206.040     470.759     116.218
  C     -205.991     473.101     115.675
  O     -207.007     473.573     114.802
  C     -206.355     472.935     117.146
  O     -207.281     473.903     117.613
  C     -206.820     471.486     117.191
  N     -208.157     471.490     122.096
  C     -208.706     472.196     121.047
  N     -209.604     473.149     121.378
  N     -208.381     472.001     119.796
  C     -207.393     471.091     119.627
  C     -206.770     470.332     120.592
  C     -207.161     470.531     121.967
  O     -206.618     470.009     122.941
  N     -205.761     469.565     120.064
  C     -205.750     469.885     118.786
  N     -206.697     470.835     118.482
  O     -201.498     474.185     113.668
  O     -202.602     474.227     115.920
  H     -206.853     474.781     117.545
  H     -202.830     475.090     115.514
  H     -208.392     471.745     123.049
  H     -205.064     469.488     118.048
  H     -207.873     471.396     116.910
  H     -205.437     473.070     117.729
  H     -209.765     473.426     122.339
  H     -205.211     473.858     115.586
  H     -209.830     473.837     120.665
  H     -205.707     471.410     114.288
  H     -203.612     472.142     116.396
  H     -203.569     470.613     115.511
  P     -207.259     475.057     114.269
  C     -205.865     475.113     112.118
  O     -205.961     475.539     113.462
  O     -207.225     475.975     115.580
  O     -208.548     475.246     113.540
  H     -207.912     476.668     115.507
  H     -204.830     475.267     111.775
  H     -206.537     475.714     111.496
  H     -206.118     474.056     112.020
  H     -199.386     471.107     115.663
  H     -199.392     472.122     114.241
  H     -200.535     470.808     114.381

 3  4  5  6  7  8  9  10  11  12  23  26  30  31 0
 6-311+G(2d,p)
 ****
 33  35  36  37  38 0
 6-311+G(2d,p)
 ****
 1  2  13  14  15  16  17  18  19  20  21  22  24  25 0
 3-21G
 ****
 27  28  29  32  34  39  40  41  42  43  44  45  46  47  48  49 0
 3-21G
 ****


