%nproc=1
%NoSave
%Mem=1900MB
#P OB98/GEN NMR

erre ene a

0 1
  C      642.174     336.893     343.915
  O      642.502     337.442     345.170
  H      641.125     337.111     343.703
  H      642.310     335.808     343.942
  H      642.787     337.321     343.117
  P      644.046     337.679     345.528
  C      644.029     340.257     345.371
  O      644.184     339.122     346.222
  C      643.526     341.475     346.151
  O      642.180     341.230     346.620
  C      644.382     341.775     347.388
  O      645.507     342.600     347.136
  C      643.378     342.481     348.296
  O      643.350     343.895     348.047
  C      642.038     341.842     347.911
  N      639.671     340.961     352.358
  C      640.087     342.168     351.818
  N      639.880     343.261     352.587
  N      640.665     342.271     350.655
  C      640.906     341.083     350.053
  C      640.555     339.830     350.493
  C      639.840     339.726     351.753
  O      639.442     338.685     352.264
  N      640.992     338.849     349.637
  C      641.677     339.509     348.720
  N      641.581     340.871     348.890
  O      644.726     337.918     344.095
  O      644.721     336.551     346.249
  H      643.110     344.031     347.112
  H      645.644     337.591     344.111
  H      639.207     340.945     353.248
  H      642.215     339.057     347.895
  H      641.247     342.600     347.821
  H      643.648     342.353     349.348
  H      639.512     343.228     353.522
  H      644.691     340.849     347.874
  H      640.333     344.133     352.313
  H      643.481     342.338     345.474
  H      643.304     339.978     344.609
  H      644.971     340.483     344.871
  P      646.827     342.478     348.030
  C      648.745     341.595     346.466
  O      648.094     342.685     347.082
  O      646.883     340.921     348.382
  O      646.858     343.333     349.255
  H      646.523     340.755     349.279
  H      649.563     341.954     345.878
  H      648.053     341.077     345.835
  H      649.112     340.928     347.218

 6  7  8  9  10  11  12  13  14  15  26  29  33  34 0
 6-311+G(2d,p)
 ****
 36  38  39  40  41 0
 6-311+G(2d,p)
 ****
 1  2  3  4  5  16  17  18  19  20  21  22  23  24  25 0
 3-21G
 ****
 27  28  30  31  32  35  37  42  43  44  45  46  47 0
 3-21G
 ****
 48  49 0
 3-21G
 ****


