%nproc=1
%NoSave
%Mem=1900MB
#P OB98/GEN NMR

erre ene a

0 1
  C       70.041    -221.192      38.622
  O       69.050    -220.820      37.668
  P       69.129    -221.494      36.217
  C       69.882    -219.657      34.502
  O       70.245    -220.711      35.374
  C       71.101    -218.783      34.154
  O       72.010    -219.567      33.340
  C       70.796    -217.535      33.332
  O       71.897    -216.630      33.448
  C       70.749    -218.094      31.928
  O       70.886    -217.068      30.948
  C       71.874    -219.152      31.955
  N       71.605    -220.326      31.098
  C       71.618    -220.154      29.715
  O       71.838    -219.079      29.159
  N       71.325    -221.262      28.967
  C       71.069    -222.508      29.450
  O       70.726    -223.445      28.741
  C       71.205    -222.667      30.904
  C       71.452    -221.587      31.648
  O       67.749    -221.071      35.531
  O       69.309    -222.974      36.252
  H       70.698    -217.487      30.076
  H       67.140    -221.831      35.502
  H       71.265    -221.135      27.968
  H       71.076    -223.658      31.320
  H       71.537    -221.683      32.728
  H       72.829    -218.721      31.625
  H       69.783    -218.579      31.757
  H       69.865    -217.028      33.604
  H       71.630    -218.519      35.077
  H       69.098    -219.049      34.960
  H       69.459    -220.072      33.580
  P       71.620    -215.189      34.095
  C       71.780    -213.570      32.106
  O       70.920    -214.308      32.952
  O       72.776    -214.550      34.788
  O       70.408    -215.477      35.106
  H       70.352    -214.760      35.763
  H       71.302    -213.459      31.129
  H       72.743    -214.072      31.975
  H       71.943    -212.578      32.536
  H       69.867    -220.669      39.539
  H       71.011    -220.940      38.246
  H       69.989    -222.246      38.797

 3  4  5  6  7  8  9  10  11  12  13  23  28  29  30  31  32 0
 6-311+G(2d,p)
 ****
 33  34 0
 6-311+G(2d,p)
 ****
 1  2  14  15  16  17  18  19  20  21  22  24  25  26  27 0
 3-21G
 ****
 35  36  37  38  39  40  41  42  43  44  45 0
 3-21G
 ****


