%nproc=1
%NoSave
%Mem=1900MB
#P OB98/GEN NMR

erre ene a

0 1
  C      743.461    -452.599      41.116
  O      744.761    -452.040      41.178
  H      743.158    -452.955      42.104
  H      742.762    -451.822      40.784
  H      743.442    -453.419      40.393
  P      745.942    -453.006      41.678
  C      745.420    -452.606      44.188
  O      745.518    -453.554      43.132
  C      745.408    -453.339      45.539
  O      744.194    -454.127      45.624
  C      746.607    -454.262      45.770
  O      747.304    -453.885      46.964
  C      745.979    -455.633      46.005
  O      746.621    -456.385      47.046
  C      744.531    -455.306      46.356
  N      742.813    -459.866      47.876
  C      743.376    -458.841      48.565
  N      743.710    -457.618      48.125
  C      743.390    -457.480      46.826
  C      742.806    -458.423      46.000
  C      742.531    -459.667      46.574
  N      742.007    -460.726      45.856
  N      742.638    -457.913      44.719
  C      743.160    -456.706      44.761
  N      743.652    -456.404      46.015
  O      747.146    -451.992      42.003
  O      746.357    -454.061      40.706
  H      747.576    -456.376      46.851
  H      747.966    -452.319      41.595
  H      743.580    -459.047      49.623
  H      743.255    -456.033      43.920
  H      744.396    -455.089      47.428
  H      746.044    -456.217      45.086
  H      747.296    -454.292      44.924
  H      745.346    -452.582      46.333
  H      744.492    -452.034      44.088
  H      741.953    -461.627      46.314
  H      741.892    -460.627      44.856
  H      746.266    -451.923      44.125
  P      748.497    -452.822      46.794
  C      750.564    -454.354      47.237
  O      749.794    -453.633      46.281
  O      748.875    -452.438      48.300
  O      748.132    -451.623      45.987
  H      749.257    -451.550      48.344
  H      751.384    -454.835      46.745
  H      749.948    -455.092      47.708
  H      750.939    -453.678      47.976

 6  7  8  9  10  11  12  13  14  15  25  28  32  33  34  35 0
 6-311+G(2d,p)
 ****
 36  39  40 0
 6-311+G(2d,p)
 ****
 1  2  3  4  5  16  17  18  19  20  21  22  23  24 0
 3-21G
 ****
 26  27  29  30  31  37  38  41  42  43  44  45  46  47  48 0
 3-21G
 ****


