%nproc=1
%NoSave
%Mem=1900MB
#P OB98/GEN NMR

erre ene a

0 1
  C      598.407     -45.263    -896.780
  O      597.911     -44.268    -897.690
  P      598.926     -43.114    -898.140
  C      599.877     -41.036    -896.880
  O      598.790     -41.954    -897.040
  C      599.826     -40.378    -895.510
  O      599.795     -41.394    -894.480
  C      601.041     -39.512    -895.180
  O      600.938     -38.214    -895.750
  C      600.943     -39.440    -893.680
  O      599.953     -38.481    -893.280
  C      600.488     -40.857    -893.330
  N      602.949     -43.069    -889.436
  C      601.943     -42.180    -889.457
  N      601.349     -41.637    -890.527
  C      601.923     -42.067    -891.678
  C      602.975     -42.948    -891.789
  C      603.507     -43.470    -890.600
  N      604.520     -44.409    -890.566
  N      603.306     -43.152    -893.120
  C      602.428     -42.407    -893.790
  N      601.589     -41.748    -892.960
  O      598.194     -42.484    -899.430
  O      600.313     -43.576    -898.440
  H      599.106     -38.763    -893.680
  H      598.855     -42.035    -900.000
  H      601.546     -41.880    -888.496
  H      602.401     -42.336    -894.870
  H      599.771     -40.863    -892.490
  H      601.895     -39.142    -893.210
  H      601.971     -40.007    -895.470
  H      598.900     -39.790    -895.430
  H      599.774     -40.267    -897.660
  H      604.704     -44.880    -889.698
  H      604.776     -44.860    -891.445
  H      600.817     -41.576    -897.040
  P      602.296     -37.385    -895.930
  C      604.410     -37.113    -894.440
  O      603.026     -37.439    -894.510
  O      601.792     -35.861    -896.060
  O      603.107     -37.811    -897.120
  H      602.437     -35.346    -896.560
  H      604.671     -36.909    -893.390
  H      604.643     -36.254    -895.050
  H      605.005     -37.971    -894.780
  H      597.631     -45.968    -896.565
  H      598.722     -44.791    -895.873
  H      599.237     -45.771    -897.225

 3  4  5  6  7  8  9  10  11  12  22  25  29  30  31  32 0
 6-311+G(2d,p)
 ****
 33  36  37 0
 6-311+G(2d,p)
 ****
 1  2  13  14  15  16  17  18  19  20  21  23  24  26 0
 3-21G
 ****
 27  28  34  35  38  39  40  41  42  43  44  45  46  47  48 0
 3-21G
 ****


