%nproc=1
%NoSave
%Mem=1900MB
#P OB98/GEN NMR

erre ene a

0 1
  C     -719.551    -253.921     955.836
  O     -719.897    -253.804     954.457
  P     -721.002    -254.820     953.890
  C     -719.861    -257.142     954.226
  O     -720.205    -256.096     953.322
  C     -719.424    -258.383     953.441
  O     -720.559    -258.993     952.798
  C     -718.421    -258.099     952.321
  O     -717.118    -257.880     952.844
  C     -718.566    -259.382     951.500
  O     -717.829    -260.442     952.113
  C     -720.084    -259.656     951.602
  N     -721.193    -260.450     946.644
  C     -720.380    -261.111     947.517
  N     -720.123    -260.826     948.822
  C     -720.801    -259.738     949.212
  C     -721.648    -258.942     948.441
  C     -721.841    -259.341     947.097
  N     -722.672    -258.665     946.234
  N     -722.151    -257.897     949.180
  C     -721.626    -258.054     950.382
  N     -720.820    -259.157     950.458
  O     -721.522    -254.091     952.572
  O     -722.112    -255.134     954.837
  H     -716.889    -260.151     952.189
  H     -722.475    -254.270     952.430
  H     -719.876    -261.991     947.110
  H     -721.805    -257.394     951.226
  H     -720.319    -260.727     951.692
  H     -718.200    -259.266     950.474
  H     -718.743    -257.243     951.728
  H     -718.993    -259.108     954.157
  H     -720.730    -257.404     954.834
  H     -722.629    -258.920     945.262
  H     -723.033    -257.765     946.526
  H     -719.062    -256.796     954.893
  P     -716.396    -256.496     952.439
  C     -716.123    -256.851     949.904
  O     -715.490    -256.888     951.174
  O     -715.317    -256.331     953.609
  O     -717.325    -255.334     952.252
  H     -714.828    -257.151     953.738
  H     -715.400    -257.096     949.139
  H     -716.550    -255.872     949.707
  H     -716.940    -257.620     949.875
  H     -718.809    -253.190     956.081
  H     -719.163    -254.900     956.024
  H     -720.422    -253.761     956.437

 3  4  5  6  7  8  9  10  11  12  22  25  29  30  31  32 0
 6-311+G(2d,p)
 ****
 33  36  37 0
 6-311+G(2d,p)
 ****
 1  2  13  14  15  16  17  18  19  20  21  23  24  26 0
 3-21G
 ****
 27  28  34  35  38  39  40  41  42  43  44  45  46  47  48 0
 3-21G
 ****


