%nproc=1
%NoSave
%Mem=1900MB
#P OB98/GEN NMR

erre ene a

0 1
  C     -142.356     728.329    -346.146
  O     -143.041     729.561    -346.330
  P     -142.355     730.907    -345.743
  C     -141.359     731.682    -348.036
  O     -141.108     731.282    -346.694
  C     -140.057     732.155    -348.705
  O     -139.008     731.172    -348.565
  C     -140.204     732.365    -350.227
  O     -140.761     733.650    -350.503
  C     -138.733     732.330    -350.662
  O     -138.111     733.575    -350.375
  C     -138.159     731.228    -349.741
  N     -136.267     728.438    -353.605
  C     -136.158     729.758    -353.305
  N     -136.701     730.434    -352.269
  C     -137.413     729.599    -351.493
  C     -137.636     728.235    -351.677
  C     -137.014     727.653    -352.793
  N     -137.145     726.312    -353.105
  N     -138.442     727.729    -350.676
  C     -138.705     728.749    -349.894
  N     -138.115     729.907    -350.352
  O     -141.667     730.399    -344.393
  O     -143.316     732.019    -345.483
  H     -137.160     733.469    -350.527
  H     -141.678     731.096    -343.735
  H     -135.532     730.354    -353.987
  H     -139.305     728.694    -348.981
  H     -137.141     731.463    -349.400
  H     -138.628     732.135    -351.729
  H     -140.765     731.538    -350.686
  H     -139.740     733.098    -348.232
  H     -142.104     732.485    -348.044
  H     -136.646     725.968    -353.900
  H     -137.673     725.720    -352.488
  H     -141.810     730.840    -348.580
  P     -142.354     733.727    -350.572
  C     -142.460     735.298    -348.481
  O     -142.840     734.073    -349.078
  O     -142.826     732.211    -350.803
  O     -142.883     734.641    -351.637
  H     -143.651     732.179    -351.301
  H     -143.106     735.501    -347.599
  H     -142.584     736.125    -349.205
  H     -141.405     735.258    -348.156
  H     -142.926     727.536    -346.583
  H     -142.230     728.144    -345.100
  H     -141.397     728.381    -346.617

 3  4  5  6  7  8  9  10  11  12  22  25  29  30  31  32 0
 6-311+G(2d,p)
 ****
 33  36  37 0
 6-311+G(2d,p)
 ****
 1  2  13  14  15  16  17  18  19  20  21  23  24  26 0
 3-21G
 ****
 27  28  34  35  38  39  40  41  42  43  44  45  46  47  48 0
 3-21G
 ****


