%nproc=1
%NoSave
%Mem=1900MB
#P OB98/GEN NMR

erre ene a

0 1
  C       42.389     236.421       3.018
  O       43.563     236.928       2.412
  H       42.290     235.362       2.762
  H       41.504     236.954       2.656
  H       42.458     236.511       4.105
  P       43.860     238.498       2.499
  C       42.843     240.640       1.484
  O       42.780     239.219       1.554
  C       41.752     241.186       0.560
  O       42.041     240.757      -0.800
  C       40.342     240.705       0.919
  O       39.427     241.779       0.690
  C       40.107     239.581      -0.068
  O       38.728     239.350      -0.277
  C       40.881     240.063      -1.300
  N       41.242     238.947      -2.172
  C       40.188     238.317      -2.849
  O       39.032     238.717      -2.707
  N       40.459     237.210      -3.614
  C       41.667     236.736      -3.658
  N       41.857     235.615      -4.403
  C       42.801     237.353      -2.941
  C       42.522     238.443      -2.226
  O       45.274     238.914       2.258
  O       43.377     238.898       3.972
  H       38.258     240.209      -0.315
  H       44.118     238.816       4.601
  H       43.787     236.915      -3.003
  H       43.291     238.954      -1.652
  H       40.282     240.785      -1.877
  H       40.554     238.651       0.314
  H       40.262     240.360       1.958
  H       41.808     242.282       0.565
  H       41.042     235.215      -4.859
  H       43.829     240.913       1.091
  H       42.741     235.132      -4.479
  H       42.734     241.064       2.486
  P       38.728     242.541       1.919
  C       36.581     242.331       3.301
  O       37.505     241.648       2.464
  O       38.383     243.972       1.658
  O       39.812     242.434       3.099
  H       39.728     243.212       3.685
  H       35.811     241.655       3.608
  H       36.146     243.146       2.761
  H       37.091     242.707       4.163

 6  7  8  9  10  11  12  13  14  15  16  26  30  31  32  33  35 0
 6-311+G(2d,p)
 ****
 37  38 0
 6-311+G(2d,p)
 ****
 1  2  3  4  5  17  18  19  20  21  22  23  24  25 0
 3-21G
 ****
 27  28  29  34  36  39  40  41  42  43  44  45  46 0
 3-21G
 ****


