%nproc=1
%NoSave
%Mem=1900MB
#P OB98/GEN NMR

erre ene a

0 1
  C      -26.732     -54.432      67.516
  O      -26.802     -55.750      67.013
  H      -26.956     -53.733      66.706
  H      -25.728     -54.222      67.894
  H      -27.464     -54.294      68.316
  P      -26.400     -56.924      68.033
  C      -28.558     -58.315      67.572
  O      -27.149     -58.213      67.436
  C      -29.131     -59.114      66.406
  O      -29.159     -58.314      65.205
  C      -28.325     -60.358      66.048
  O      -28.569     -61.446      66.924
  C      -28.849     -60.629      64.650
  O      -30.159     -61.219      64.732
  C      -28.920     -59.196      64.075
  N      -27.704     -58.801      63.363
  C      -27.672     -59.053      61.986
  O      -28.625     -59.590      61.426
  N      -26.542     -58.720      61.279
  C      -25.536     -58.173      61.888
  N      -24.438     -57.877      61.141
  C      -25.534     -57.875      63.331
  C      -26.634     -58.212      63.999
  O      -27.261     -56.597      69.343
  O      -24.941     -57.102      68.284
  H      -30.647     -60.730      65.419
  H      -27.177     -57.337      69.991
  H      -24.667     -57.429      63.796
  H      -26.703     -58.025      65.065
  H      -29.773     -59.090      63.394
  H      -28.220     -61.317      64.083
  H      -27.254     -60.140      65.984
  H      -30.170     -59.371      66.652
  H      -24.445     -58.149      60.167
  H      -28.978     -57.304      67.580
  H      -23.550     -57.621      61.555
  H      -28.809     -58.814      68.513
  P      -27.572     -62.702      66.846
  C      -27.594     -63.418      69.342
  O      -28.001     -63.715      68.013
  O      -26.189     -62.099      67.373
  O      -27.434     -63.315      65.487
  H      -25.433     -62.457      66.871
  H      -27.953     -64.179      70.003
  H      -27.997     -62.471      69.635
  H      -26.526     -63.380      69.388

 6  7  8  9  10  11  12  13  14  15  16  26  30  31  32  33  35 0
 6-311+G(2d,p)
 ****
 37  38 0
 6-311+G(2d,p)
 ****
 1  2  3  4  5  17  18  19  20  21  22  23  24  25 0
 3-21G
 ****
 27  28  29  34  36  39  40  41  42  43  44  45  46 0
 3-21G
 ****


