%nproc=1
%NoSave
%Mem=1900MB
#P OB98/GEN NMR

erre ene a

0 1
  C     -747.785     393.842     980.509
  O     -748.127     392.527     980.033
  P     -748.843     392.299     978.617
  C     -751.314     392.272     979.337
  O     -750.307     392.980     978.606
  C     -752.608     393.107     979.516
  O     -753.091     393.613     978.237
  C     -753.775     392.320     980.160
  O     -754.526     393.289     980.904
  C     -754.548     391.850     978.942
  O     -755.897     391.495     979.227
  C     -754.421     393.089     978.048
  N     -757.720     391.108     974.660
  C     -757.863     391.447     975.951
  N     -756.949     391.988     976.769
  C     -755.796     392.240     976.125
  C     -755.509     391.959     974.796
  C     -756.538     391.329     974.059
  N     -756.368     390.935     972.742
  N     -754.210     392.304     974.500
  C     -753.723     392.800     975.627
  N     -754.645     392.779     976.627
  O     -748.837     390.878     978.159
  O     -748.007     393.212     977.599
  H     -756.342     392.256     979.625
  H     -747.819     392.689     976.784
  H     -758.839     391.242     976.386
  H     -752.715     393.144     975.747
  H     -755.129     393.881     978.325
  H     -754.055     390.979     978.504
  H     -753.450     391.516     980.804
  H     -752.351     393.975     980.112
  H     -750.924     392.004     980.306
  H     -757.143     390.428     972.316
  H     -755.461     391.000     972.315
  H     -751.553     391.347     978.793
  P     -754.203     393.619     982.435
  C     -755.749     391.779     983.325
  O     -754.418     392.253     983.243
  O     -754.930     394.789     983.000
  O     -752.611     393.827     982.481
  H     -752.383     394.319     983.310
  H     -756.302     392.368     984.072
  H     -755.740     390.736     983.648
  H     -756.257     391.847     982.352
  H     -747.319     393.764     981.469
  H     -748.673     394.434     980.591
  H     -747.109     394.306     979.821

 3  4  5  6  7  8  9  10  11  12  22  25  29  30  31  32 0
 6-311+G(2d,p)
 ****
 33  36  37 0
 6-311+G(2d,p)
 ****
 1  2  13  14  15  16  17  18  19  20  21  23  24  26 0
 3-21G
 ****
 27  28  34  35  38  39  40  41  42  43  44  45  46  47  48 0
 3-21G
 ****


