%nproc=1
%NoSave
%Mem=1900MB
#P OB98/GEN NMR

erre ene a

0 1
  C     -105.491    -140.923      15.054
  O     -106.471    -141.830      15.527
  P     -108.014    -141.483      15.243
  C     -108.448    -140.824      17.726
  O     -108.462    -140.427      16.365
  C     -109.748    -140.410      18.420
  O     -109.927    -138.980      18.251
  C     -111.010    -141.091      17.877
  O     -111.916    -141.233      18.979
  C     -111.558    -140.068      16.897
  O     -112.945    -140.249      16.630
  C     -111.211    -138.772      17.620
  N     -113.228    -134.308      16.356
  C     -113.644    -135.235      17.296
  N     -114.716    -134.890      18.040
  N     -113.062    -136.389      17.486
  C     -111.994    -136.586      16.678
  C     -111.511    -135.767      15.686
  C     -112.140    -134.477      15.509
  O     -111.751    -133.593      14.751
  N     -110.466    -136.349      15.017
  C     -110.268    -137.484      15.659
  N     -111.140    -137.651      16.702
  O     -108.766    -142.830      15.667
  O     -108.336    -141.062      13.844
  H     -113.396    -140.408      17.483
  H     -108.905    -143.415      14.897
  H     -113.706    -133.427      16.267
  H     -109.512    -138.216      15.420
  H     -111.939    -138.516      18.400
  H     -111.022    -140.146      15.944
  H     -115.195    -134.003      17.969
  H     -110.821    -142.063      17.412
  H     -115.023    -135.535      18.759
  H     -109.641    -140.604      19.493
  H     -107.612    -140.327      18.230
  H     -108.299    -141.906      17.792
  P     -112.879    -142.515      18.999
  C     -114.809    -140.953      18.265
  O     -114.145    -142.185      18.078
  O     -113.486    -142.481      20.484
  O     -112.196    -143.817      18.735
  H     -113.654    -143.392      20.788
  H     -115.354    -140.705      17.351
  H     -114.107    -140.145      18.487
  H     -115.524    -141.047      19.087
  H     -104.517    -141.282      15.314
  H     -105.648    -139.963      15.500
  H     -105.567    -140.838      13.990

 3  4  5  6  7  8  9  10  11  12  23  26  30  31 0
 6-311+G(2d,p)
 ****
 33  35  36  37  38 0
 6-311+G(2d,p)
 ****
 1  2  13  14  15  16  17  18  19  20  21  22  24  25 0
 3-21G
 ****
 27  28  29  32  34  39  40  41  42  43  44  45  46  47  48  49 0
 3-21G
 ****


