%nproc=1
%NoSave
%Mem=1900MB
#P OB98/GEN NMR

erre ene a

0 1
  C     -328.508     455.350     173.342
  O     -328.821     454.654     172.132
  P     -330.066     453.649     172.003
  C     -330.587     453.515     169.476
  O     -329.982     452.880     170.596
  C     -330.196     452.843     168.158
  O     -328.768     452.904     167.958
  C     -330.552     451.362     168.070
  O     -331.939     451.182     167.838
  C     -329.649     450.911     166.927
  O     -330.234     451.209     165.651
  C     -328.386     451.760     167.165
  N     -327.313     451.011     167.801
  C     -326.230     450.659     166.988
  O     -326.243     450.920     165.783
  N     -325.174     449.980     167.550
  C     -325.231     449.625     168.799
  N     -324.153     448.969     169.302
  C     -326.388     449.908     169.669
  C     -327.380     450.596     169.109
  O     -331.392     454.288     172.265
  O     -329.776     452.494     173.073
  H     -329.690     450.749     164.983
  H     -330.629     452.151     173.407
  H     -326.404     449.568     170.693
  H     -328.266     450.849     169.679
  H     -328.014     452.168     166.213
  H     -329.453     449.835     166.949
  H     -330.249     450.854     168.996
  H     -330.676     453.397     167.343
  H     -323.372     448.796     168.682
  H     -330.254     454.564     169.456
  H     -324.088     448.649     170.262
  H     -331.674     453.501     169.604
  P     -332.841     450.467     168.953
  C     -335.205     451.393     168.551
  O     -334.313     450.308     168.345
  O     -332.782     451.064     170.317
  O     -332.306     448.958     168.962
  H     -332.400     448.595     169.867
  H     -335.990     451.352     167.786
  H     -334.682     452.351     168.481
  H     -335.668     451.304     169.535
  H     -327.641     455.958     173.189
  H     -328.314     454.642     174.121
  H     -329.334     455.970     173.621

 3  4  5  6  7  8  9  10  11  12  13  23  27  28  29  30  32 0
 6-311+G(2d,p)
 ****
 34  35 0
 6-311+G(2d,p)
 ****
 1  2  14  15  16  17  18  19  20  21  22  24  25  26 0
 3-21G
 ****
 31  33  36  37  38  39  40  41  42  43  44  45  46 0
 3-21G
 ****


