%nproc=1
%NoSave
%Mem=1900MB
#P OB98/GEN NMR

erre ene a

0 1
  C     -297.375    -232.455      21.113
  O     -298.190    -231.279      21.106
  P     -297.438    -229.862      21.050
  C     -298.606    -228.191      22.696
  O     -298.556    -228.768      21.398
  C     -299.314    -226.839      22.640
  O     -298.647    -225.950      21.710
  C     -300.757    -226.910      22.165
  O     -301.609    -227.432      23.172
  C     -301.013    -225.455      21.797
  O     -301.310    -224.688      22.975
  C     -299.647    -225.026      21.219
  N     -299.639    -224.955      19.765
  C     -300.435    -223.961      19.203
  O     -301.130    -223.196      19.872
  N     -300.423    -223.887      17.836
  C     -299.733    -224.710      16.996
  O     -299.751    -224.590      15.778
  C     -298.948    -225.773      17.647
  C     -298.937    -225.845      18.979
  O     -297.200    -229.701      19.479
  O     -296.205    -229.824      21.887
  H     -297.924    -230.071      18.944
  H     -302.103    -225.094      23.376
  H     -300.983    -223.165      17.410
  H     -298.408    -226.459      17.009
  H     -298.367    -226.624      19.476
  H     -299.366    -224.040      21.609
  H     -301.857    -225.339      21.109
  H     -300.822    -227.537      21.266
  H     -299.267    -226.387      23.641
  H     -297.591    -228.048      23.080
  H     -299.121    -228.880      23.371
  P     -302.572    -228.648      22.750
  C     -304.651    -228.141      24.252
  O     -303.513    -228.939      24.013
  O     -301.541    -229.872      22.743
  O     -303.282    -228.429      21.454
  H     -300.946    -229.872      23.510
  H     -305.330    -228.685      24.913
  H     -305.179    -227.910      23.324
  H     -304.352    -227.213      24.744
  H     -298.001    -233.322      21.152
  H     -296.734    -232.439      21.969
  H     -296.781    -232.483      20.223

 3  4  5  6  7  8  9  10  11  12  13  24  28  29  30  31  32 0
 6-311+G(2d,p)
 ****
 33  34 0
 6-311+G(2d,p)
 ****
 1  2  14  15  16  17  18  19  20  21  22  23  25  26  27 0
 3-21G
 ****
 35  36  37  38  39  40  41  42  43  44  45 0
 3-21G
 ****


