%nproc=1
%NoSave
%Mem=1900MB
#P OB98/GEN NMR

erre ene a

0 1
  C       65.881     488.431      10.101
  O       64.935     487.532      10.652
  H       65.401     489.401       9.956
  H       66.235     488.057       9.137
  H       66.727     488.554      10.787
  P       65.464     486.055      10.981
  C       65.638     485.252       8.503
  O       66.320     485.596       9.702
  C       66.242     483.983       7.897
  O       65.583     483.718       6.621
  C       67.749     484.093       7.609
  O       68.336     482.785       7.728
  C       67.755     484.511       6.145
  O       69.026     484.304       5.576
  C       66.625     483.631       5.623
  N       67.587     483.644       0.617
  C       68.227     483.066       1.654
  N       67.899     483.103       2.964
  C       66.768     483.805       3.151
  C       66.007     484.453       2.189
  C       66.463     484.359       0.861
  N       65.829     484.964      -0.197
  N       64.930     485.090       2.775
  C       65.035     484.830       4.063
  N       66.130     484.056       4.333
  O       64.136     485.161      10.888
  O       66.155     485.891      12.291
  H       69.042     484.579       4.637
  H       63.730     485.080      11.770
  H       69.120     482.501       1.404
  H       64.362     485.177       4.836
  H       66.920     482.577       5.536
  H       67.515     485.572       6.037
  H       68.268     484.792       8.269
  H       66.023     483.130       8.547
  H       65.730     486.086       7.797
  H       64.578     485.084       8.726
  H       66.236     484.872      -1.114
  H       65.010     485.526      -0.023
  P       68.965     482.339       9.139
  C       71.471     483.016       8.892
  O       70.218     483.264       9.513
  O       69.667     480.949       8.764
  O       67.974     482.137      10.242
  H       69.453     480.277       9.442
  H       72.193     483.719       9.252
  H       71.370     483.119       7.832
  H       71.794     482.023       9.124

 6  7  8  9  10  11  12  13  14  15  25  28  32  33  34  35 0
 6-311+G(2d,p)
 ****
 36  37  40 0
 6-311+G(2d,p)
 ****
 1  2  3  4  5  16  17  18  19  20  21  22  23  24 0
 3-21G
 ****
 26  27  29  30  31  38  39 41  42  43  44  45  46  47  48 0
 3-21G
 ****


