%nproc=1
%NoSave
%Mem=1900MB
#P OB98/GEN NMR

erre ene a

0 1
  C      211.419     637.790     524.755
  O      212.785     637.448     524.830
  H      211.137     638.294     525.681
  H      210.812     636.886     524.650
  H      211.229     638.463     523.911
  P      213.503     636.837     523.523
  C      215.410     636.647     525.247
  O      215.066     636.715     523.865
  C      216.892     636.298     525.395
  O      217.160     635.007     524.822
  C      217.826     637.263     524.649
  O      217.959     638.493     525.329
  C      219.089     636.424     524.575
  O      219.842     636.513     525.793
  C      218.537     635.003     524.359
  N      218.623     634.578     522.970
  C      219.787     633.921     522.600
  O      220.730     633.696     523.379
  N      219.906     633.592     521.272
  C      219.045     633.979     520.280
  O      219.297     633.876     519.087
  C      217.791     634.608     520.744
  C      217.654     634.882     522.033
  O      213.189     637.527     522.235
  O      213.018     635.311     523.507
  H      212.308     635.205     522.847
  H      220.611     635.913     525.684
  H      220.779     633.163     520.994
  H      217.045     634.857     519.996
  H      216.746     635.370     522.399
  H      219.071     634.285     524.998
  H      219.752     636.765     523.761
  H      217.450     637.433     523.625
  H      217.144     636.267     526.463
  H      214.809     635.867     525.726
  H      215.187     637.613     525.714
  P      217.313     639.825     524.725
  C      218.519     641.030     526.662
  O      217.340     640.961     525.868
  O      215.986     639.654     524.046
  O      218.417     640.351     523.681
  H      217.985     640.547     522.839
  H      218.420     641.817     527.381
  H      219.362     641.226     526.033
  H      218.662     640.099     527.170

 6  7  8  9  10  11  12  13  14  15  16  27  31  32  33  34  35 0
 6-311+G(2d,p)
 ****
 36  37 0
 6-311+G(2d,p)
 ****
 1  2  3  4  5  17  18  19  20  21  22  23  24  25 0
 3-21G
 ****
 26  28  29  30  38  39  40  41  42  43  44  45 0
 3-21G
 ****


