%nproc=1
%NoSave
%Mem=1900MB
#P OB98/GEN NMR

erre ene a

0 1
  C     -136.651    -515.791     253.904
  O     -135.669    -514.773     253.815
  H     -136.744    -516.094     254.950
  H     -136.345    -516.661     253.317
  H     -137.621    -515.425     253.556
  P     -135.441    -514.043     252.405
  C     -134.379    -512.086     253.706
  O     -134.256    -512.991     252.615
  C     -133.087    -511.287     253.866
  O     -132.769    -510.600     252.638
  C     -133.163    -510.208     254.939
  O     -133.063    -510.764     256.234
  C     -131.993    -509.326     254.533
  O     -130.749    -509.869     255.007
  C     -132.073    -509.384     252.994
  N     -132.727    -508.210     252.413
  C     -131.895    -507.141     252.091
  O     -130.683    -507.134     252.296
  N     -132.521    -506.051     251.537
  C     -133.869    -505.889     251.392
  O     -134.381    -504.856     250.973
  C     -134.694    -507.041     251.776
  C     -134.095    -508.132     252.258
  O     -136.670    -513.496     251.754
  O     -134.757    -515.177     251.500
  H     -130.050    -509.249     254.714
  H     -135.411    -515.525     250.870
  H     -131.942    -505.258     251.308
  H     -135.765    -506.956     251.663
  H     -134.685    -508.993     252.553
  H     -131.065    -509.458     252.565
  H     -132.077    -508.316     254.944
  H     -134.091    -509.636     254.832
  H     -132.269    -511.995     254.080
  H     -134.568    -512.661     254.619
  H     -135.231    -511.420     253.522
  P     -134.296    -510.647     257.253
  C     -133.664    -512.820     258.466
  O     -133.897    -511.425     258.598
  O     -135.629    -511.001     256.684
  O     -134.265    -509.107     257.703
  H     -135.106    -508.682     257.449
  H     -133.407    -513.231     259.420
  H     -132.860    -512.984     257.779
  H     -134.549    -513.296     258.099

 6  7  8  9  10  11  12  13  14  15  16  26  31  32  33  34  35 0
 6-311+G(2d,p)
 ****
 36  37 0
 6-311+G(2d,p)
 ****
 1  2  3  4  5  17  18  19  20  21  22  23  24  25 0
 3-21G
 ****
 27  28  29  30  38  39  40  41  42  43  44  45 0
 3-21G
 ****


