%nproc=1
%NoSave
%Mem=1900MB
#P OB98/GEN NMR

erre ene a

0 1
  C     -614.046      89.408    -104.287
  O     -613.983      88.007    -104.505
  P     -615.267      87.138    -104.106
  C     -614.042      85.283    -102.741
  O     -614.921      86.399    -102.721
  C     -613.960      84.650    -101.358
  O     -613.399      85.598    -100.420
  C     -615.306      84.244    -100.767
  O     -615.779      83.044    -101.362
  C     -614.932      84.100     -99.291
  O     -614.258      82.860     -99.057
  C     -613.950      85.282     -99.104
  N     -613.884      88.728     -95.311
  C     -613.133      87.630     -95.542
  N     -613.217      86.738     -96.566
  C     -614.210      87.095     -97.402
  C     -615.082      88.171     -97.286
  C     -614.895      89.021     -96.180
  N     -615.656      90.127     -95.938
  N     -615.991      88.199     -98.317
  C     -615.669      87.158     -99.066
  N     -614.591      86.458     -98.565
  O     -615.255      85.947    -105.175
  O     -616.568      87.892    -104.122
  H     -613.902      82.889     -98.147
  H     -616.166      85.670    -105.408
  H     -612.343      87.426     -94.817
  H     -616.171      86.862     -99.983
  H     -613.112      85.021     -98.450
  H     -615.799      84.143     -98.619
  H     -616.045      85.033    -100.901
  H     -613.286      83.782    -101.422
  H     -613.042      85.616    -103.041
  H     -615.549      90.593     -95.052
  H     -616.483      90.262     -96.511
  H     -614.391      84.568    -103.492
  P     -617.195      82.471    -100.851
  C     -615.990      80.410     -99.871
  O     -616.784      81.546     -99.604
  O     -617.545      81.404    -101.985
  O     -618.234      83.514    -100.597
  H     -616.782      80.820    -102.167
  H     -615.745      79.911     -98.956
  H     -615.058      80.712    -100.370
  H     -616.544      79.718    -100.533
  H     -613.126      89.859    -104.596
  H     -614.205      89.600    -103.247
  H     -614.854      89.821    -104.854

 3  4  5  6  7  8  9  10  11  12  22  25  29  30  31  32 0
 6-311+G(2d,p)
 ****
 33  36  37 0
 6-311+G(2d,p)
 ****
 1  2  13  14  15  16  17  18  19  20  21  23  24  26 0
 3-21G
 ****
 27  28  34  35  38  39  40  41  42  43  44  45  46  47  48 0
 3-21G
 ****


