%nproc=1
%NoSave
%Mem=1900MB
#P OB98/GEN NMR

erre ene a

0 1
  C     -201.731      15.259     277.303
  O     -200.390      15.665     277.526
  P     -199.275      14.519     277.667
  C     -198.453      14.578     275.167
  O     -199.122      13.878     276.206
  C     -197.096      13.932     274.885
  O     -196.206      14.148     276.001
  C     -197.141      12.423     274.688
  O     -197.627      12.071     273.400
  C     -195.686      12.046     274.941
  O     -194.893      12.302     273.771
  C     -195.299      13.024     276.069
  N     -195.317      12.411     277.396
  C     -194.122      11.840     277.825
  O     -193.096      11.839     277.147
  N     -194.153      11.248     279.060
  C     -195.251      11.118     279.862
  O     -195.233      10.541     280.941
  C     -196.492      11.712     279.340
  C     -196.468      12.320     278.152
  O     -200.085      13.424     278.508
  O     -198.016      15.000     278.301
  H     -201.045      13.488     278.356
  H     -194.032      11.862     273.920
  H     -193.292      10.850     279.403
  H     -197.386      11.620     279.943
  H     -197.374      12.753     277.749
  H     -194.298      13.433     275.893
  H     -195.561      10.989     275.198
  H     -197.778      11.965     275.456
  H     -196.658      14.421     274.004
  H     -198.306      15.618     275.475
  H     -199.079      14.564     274.268
  P     -198.384      10.659     273.279
  C     -200.449      11.408     274.696
  O     -199.338      10.551     274.560
  O     -197.190       9.638     273.584
  O     -199.054      10.450     271.958
  H     -196.623       9.930     274.318
  H     -201.151      10.964     275.406
  H     -200.959      11.555     273.739
  H     -200.118      12.375     275.086
  H     -202.358      16.123     277.230
  H     -202.059      14.648     278.118
  H     -201.788      14.700     276.393

 3  4  5  6  7  8  9  10  11  12  13  24  28  29  30  31  32 0
 6-311+G(2d,p)
 ****
 33  34 0
 6-311+G(2d,p)
 ****
 1  2  14  15  16  17  18  19  20  21  22  23  25  26  27 0
 3-21G
 ****
 35  36  37  38  39  40  41  42  43  44  45 0
 3-21G
 ****


