%nproc=1
%NoSave
%Mem=1900MB
#P OB98/GEN NMR

erre ene a

0 1
  C      -73.412     348.386     -20.611
  O      -72.161     347.936     -21.084
  H      -73.261     348.878     -19.649
  H      -74.083     347.538     -20.474
  H      -73.860     349.101     -21.308
  P      -72.031     347.471     -22.610
  C      -70.011     345.912     -22.175
  O      -70.495     347.065     -22.851
  C      -68.648     346.189     -21.528
  O      -67.768     346.776     -22.523
  C      -68.769     347.205     -20.385
  O      -67.745     347.021     -19.401
  C      -68.536     348.527     -21.085
  O      -68.088     349.565     -20.204
  C      -67.509     348.136     -22.149
  N      -64.961     351.351     -25.191
  C      -64.603     350.842     -23.959
  N      -63.401     351.255     -23.466
  N      -65.354     350.043     -23.253
  C      -66.557     349.783     -23.833
  C      -67.038     350.233     -25.042
  C      -66.174     351.095     -25.821
  O      -66.454     351.586     -26.916
  N      -68.302     349.761     -25.288
  C      -68.590     349.029     -24.230
  N      -67.556     348.990     -23.334
  O      -72.161     348.838     -23.434
  O      -73.038     346.456     -23.065
  H      -67.201     349.317     -19.882
  H      -72.447     348.658     -24.351
  H      -64.331     351.944     -25.706
  H      -69.520     348.491     -24.078
  H      -66.492     348.190     -21.743
  H      -69.485     348.865     -21.507
  H      -62.893     352.017     -23.886
  H      -69.738     347.181     -19.893
  H      -63.271     351.155     -22.458
  H      -68.184     345.245     -21.208
  H      -69.939     345.113     -22.921
  H      -70.741     345.584     -21.416
  P      -68.105     346.185     -18.078
  C      -66.655     347.391     -16.215
  O      -66.892     346.264     -17.037
  O      -68.078     344.662     -18.567
  O      -69.418     346.554     -17.447
  H      -68.975     344.266     -18.493
  H      -65.794     347.213     -15.606
  H      -67.506     347.561     -15.589
  H      -66.486     348.251     -16.829

 6  7  8  9  10  11  12  13  14  15  26  29  33  34 0
 6-311+G(2d,p)
 ****
 36  38  39  40  41 0
 6-311+G(2d,p)
 ****
 1  2  3  4  5  16  17  18  19  20  21  22  23  24  25 0
 3-21G
 ****
 27  28  30  31  32  35  37  42  43  44  45  46  47 0
 3-21G
 ****
 48  49 0
 3-21G
 ****


