%nproc=1
%NoSave
%Mem=1900MB
#P OB98/GEN NMR

erre ene a

0 1
  C      204.821       3.825    -212.983
  O      204.143       2.767    -213.629
  H      204.132       4.667    -212.879
  H      205.678       4.148    -213.577
  H      205.149       3.520    -211.986
  P      204.941       1.404    -213.906
  C      204.250      -0.833    -215.018
  O      203.815       0.393    -214.451
  C      203.230      -1.338    -216.033
  O      201.948      -1.578    -215.412
  C      202.927      -0.371    -217.172
  O      203.963      -0.274    -218.132
  C      201.674      -1.017    -217.736
  O      202.033      -2.183    -218.499
  C      200.930      -1.403    -216.437
  N      199.956      -0.393    -216.025
  C      198.736      -0.381    -216.712
  O      198.519      -1.181    -217.621
  N      197.797       0.565    -216.378
  C      198.061       1.437    -215.456
  N      197.097       2.355    -215.169
  C      199.339       1.474    -214.720
  C      200.230       0.540    -215.049
  O      205.772       0.889    -212.775
  O      205.783       1.693    -215.236
  H      202.340      -2.854    -217.863
  H      206.305       0.882    -215.446
  H      199.523       2.239    -213.981
  H      201.196       0.506    -214.557
  H      200.415      -2.365    -216.552
  H      201.110      -0.358    -218.399
  H      202.661       0.620    -216.784
  H      203.591      -2.303    -216.410
  H      196.232       2.306    -215.691
  H      204.387      -1.554    -214.206
  H      197.246       3.116    -214.521
  H      205.206      -0.690    -215.531
  P      203.764       0.799    -219.314
  C      205.412       1.489    -221.218
  O      205.230       1.149    -219.854
  O      203.308       2.115    -218.533
  O      202.795       0.396    -220.380
  H      202.338       2.220    -218.568
  H      206.447       1.691    -221.400
  H      204.833       2.359    -221.449
  H      205.093       0.674    -221.834

 6  7  8  9  10  11  12  13  14  15  16  26  30  31  32  33  35 0
 6-311+G(2d,p)
 ****
 37  38 0
 6-311+G(2d,p)
 ****
 1  2  3  4  5  17  18  19  20  21  22  23  24  25 0
 3-21G
 ****
 27  28  29  34  36  39  40  41  42  43  44  45  46 0
 3-21G
 ****


