%nproc=1
%NoSave
%Mem=1900MB
#P OB98/GEN NMR

erre ene a

0 1
  C       77.899    -108.982     126.424
  O       78.373    -109.408     125.135
  P       78.931    -108.399     124.021
  C       81.360    -107.938     123.256
  O       80.374    -108.922     123.551
  C       82.648    -108.597     122.736
  O       83.332    -109.274     123.822
  C       82.447    -109.684     121.684
  O       82.098    -109.149     120.422
  C       83.807    -110.375     121.722
  O       84.766    -109.703     120.897
  C       84.211    -110.249     123.203
  N       84.169    -111.516     123.914
  C       84.935    -112.559     123.376
  O       85.529    -112.408     122.312
  N       84.990    -113.752     124.066
  C       84.258    -113.920     125.124
  N       84.367    -115.112     125.769
  C       83.339    -112.889     125.649
  C       83.351    -111.722     125.002
  O       78.921    -106.962     124.438
  O       78.005    -108.630     122.734
  H       77.987    -107.822     122.196
  H       85.646    -109.845     121.307
  H       82.726    -113.084     126.511
  H       82.719    -110.909     125.328
  H       85.217    -109.820     123.283
  H       83.748    -111.413     121.366
  H       81.672    -110.377     122.027
  H       83.305    -107.805     122.351
  H       85.018    -115.794     125.390
  H       81.589    -107.387     124.173
  H       83.863    -115.337     126.614
  H       80.957    -107.235     122.515
  P       80.568    -109.296     119.971
  C       79.051    -107.492     118.875
  O       80.280    -108.198     118.844
  O       79.744    -108.766     121.241
  O       80.160    -110.685     119.606
  H       78.950    -109.315     121.375
  H       79.196    -106.519     118.403
  H       78.692    -107.349     119.899
  H       78.304    -108.053     118.304
  H       77.580    -109.835     126.986
  H       77.076    -108.310     126.297
  H       78.688    -108.484     126.948

 3  4  5  6  7  8  9  10  11  12  13  24  27  28  29  30  32 0
 6-311+G(2d,p)
 ****
 34  35 0
 6-311+G(2d,p)
 ****
 1  2  14  15  16  17  18  19  20  21  22  23  25  26 0
 3-21G
 ****
 31  33  36  37  38  39  40  41  42  43  44  45  46 0
 3-21G
 ****


