%nproc=1
%NoSave
%Mem=1900MB
#P OB98/GEN NMR

erre ene a

0 1
  C      366.557      -1.758       9.466
  O      367.100      -3.034       9.187
  H      366.012      -1.785      10.414
  H      367.376      -1.038       9.550
  H      365.889      -1.441       8.661
  P      366.057      -4.205       8.853
  C      365.821      -4.889      11.349
  O      365.174      -4.399      10.184
  C      364.794      -5.470      12.322
  O      365.488      -6.271      13.318
  C      363.983      -4.400      13.069
  O      362.635      -4.853      13.201
  C      364.646      -4.345      14.434
  O      363.763      -3.866      15.445
  C      365.083      -5.796      14.621
  N      366.382      -7.363      19.303
  C      365.232      -7.466      18.602
  N      364.974      -7.024      17.354
  C      366.070      -6.470      16.808
  C      367.311      -6.287      17.398
  C      367.446      -6.760      18.717
  N      368.601      -6.628      19.451
  N      368.168      -5.639      16.532
  C      367.459      -5.433      15.438
  N      366.184      -5.908      15.561
  O      366.998      -5.507       8.834
  O      365.292      -4.051       7.586
  H      363.508      -2.947      15.218
  H      367.467      -5.554       7.976
  H      364.415      -7.963      19.112
  H      367.817      -4.942      14.543
  H      364.274      -6.435      14.985
  H      365.517      -3.677      14.397
  H      363.997      -3.433      12.566
  H      364.135      -6.151      11.773
  H      366.359      -4.067      11.834
  H      368.597      -6.938      20.409
  H      369.387      -6.128      19.051
  H      366.538      -5.667      11.065
  P      361.556      -4.203      12.202
  C      361.164      -2.048      13.582
  O      361.608      -2.610      12.358
  O      360.152      -4.607      12.857
  O      361.666      -4.711      10.798
  H      359.570      -5.003      12.184
  H      361.257      -0.983      13.540
  H      361.761      -2.426      14.385
  H      360.140      -2.311      13.744

 6  7  8  9  10  11  12  13  14  15  25  28  32  33  34  35 0
 6-311+G(2d,p)
 ****
 36  39  40 0
 6-311+G(2d,p)
 ****
 1  2  3  4  5  16  17  18  19  20  21  22  23  24 0
 3-21G
 ****
 26  27  29  30  31  37  38  41  42  43  44  45  46  47 0
 3-21G
 ****
 48 0
 3-21G
 ****


