%nproc=1
%NoSave
%Mem=1900MB
#P OB98/GEN NMR

erre ene a

0 1
  C      549.081     -19.992     -69.609
  O      549.963     -20.695     -70.500
  P      551.103     -21.708     -70.004
  C      552.572     -19.644     -69.465
  O      552.089     -20.907     -69.022
  C      553.427     -18.971     -68.387
  O      552.673     -18.822     -67.165
  C      554.666     -19.757     -67.966
  O      555.691     -19.724     -68.941
  C      555.021     -19.055     -66.650
  O      555.808     -17.882     -66.878
  C      553.640     -18.667     -66.096
  N      553.249     -19.446     -64.930
  C      553.734     -19.002     -63.694
  O      554.510     -18.051     -63.636
  N      553.330     -19.658     -62.557
  C      552.601     -20.729     -62.655
  N      552.218     -21.335     -61.495
  C      552.184     -21.307     -63.945
  C      552.541     -20.621     -65.030
  O      551.809     -22.416     -71.114
  O      550.353     -22.745     -69.036
  H      550.837     -23.593     -69.031
  H      555.967     -17.470     -66.004
  H      551.617     -22.227     -63.984
  H      552.262     -20.970     -66.021
  H      553.617     -17.599     -65.846
  H      555.602     -19.705     -65.981
  H      554.380     -20.796     -67.755
  H      553.715     -17.975     -68.750
  H      552.514     -20.903     -60.626
  H      551.711     -18.999     -69.687
  H      551.636     -22.157     -61.454
  H      553.142     -19.776     -70.391
  P      556.227     -21.136     -69.483
  C      558.016     -21.242     -67.600
  O      556.939     -21.882     -68.260
  O      557.444     -20.725     -70.441
  O      555.208     -21.947     -70.206
  H      557.447     -21.307     -71.231
  H      558.064     -21.598     -66.569
  H      557.893     -20.152     -67.589
  H      558.950     -21.493     -68.104
  H      548.412     -19.380     -70.178
  H      549.656     -19.375     -68.951
  H      548.518     -20.697     -69.035

 3  4  5  6  7  8  9  10  11  12  13  24  27  28  29  30  32 0
 6-311+G(2d,p)
 ****
 34  35 0
 6-311+G(2d,p)
 ****
 1  2  14  15  16  17  18  19  20  21  22  23  25  26 0
 3-21G
 ****
 31  33  36  37  38  39  40  41  42  43  44  45  46 0
 3-21G
 ****


