%nproc=1
%NoSave
%Mem=1900MB
#P OB98/GEN NMR

erre ene a

0 1
  C      -48.348       1.256     -38.340
  O      -48.958       0.177     -39.017
  H      -48.850       2.182     -38.631
  H      -47.290       1.329     -38.610
  H      -48.449       1.125     -37.259
  P      -48.327      -1.277     -38.767
  C      -49.276      -1.432     -36.374
  O      -49.309      -1.962     -37.693
  C      -50.443      -1.980     -35.550
  O      -51.635      -1.977     -36.381
  C      -50.227      -3.418     -35.060
  O      -50.814      -3.561     -33.764
  C      -51.014      -4.247     -36.060
  O      -51.388      -5.516     -35.536
  C      -52.180      -3.309     -36.369
  N      -54.119      -7.107     -39.154
  C      -53.738      -7.037     -37.860
  N      -53.253      -5.970     -37.189
  C      -53.230      -4.880     -37.982
  C      -53.584      -4.799     -39.316
  C      -54.040      -5.988     -39.915
  N      -54.394      -6.079     -41.240
  N      -53.372      -3.519     -39.793
  C      -52.911      -2.837     -38.760
  N      -52.788      -3.627     -37.649
  O      -46.879      -1.299     -38.406
  O      -48.708      -2.041     -40.121
  H      -52.075      -5.379     -34.849
  H      -49.642      -1.892     -40.366
  H      -53.830      -7.957     -37.288
  H      -52.637      -1.787     -38.770
  H      -52.971      -3.355     -35.610
  H      -50.407      -4.419     -36.957
  H      -49.176      -3.705     -35.024
  H      -50.636      -1.299     -34.712
  H      -49.332      -0.339     -36.405
  H      -54.714      -6.972     -41.587
  H      -54.348      -5.258     -41.826
  H      -48.322      -1.719     -35.920
  P      -49.959      -3.149     -32.472
  C      -50.236      -0.595     -32.260
  O      -50.649      -1.869     -31.785
  O      -48.485      -3.036     -32.678
  O      -50.303      -4.321     -31.429
  H      -49.486      -4.582     -30.964
  H      -50.762       0.171     -31.730
  H      -50.451      -0.517     -33.305
  H      -49.184      -0.480     -32.103

 6  7  8  9  10  11  12  13  14  15  25  28  32  33  34  35 0
 6-311+G(2d,p)
 ****
 36  39  40 0
 6-311+G(2d,p)
 ****
 1  2  3  4  5  16  17  18  19  20  21  22  23  24 0
 3-21G
 ****
 26  27  29  30  31  37  38  41  42  43  44  45  46  47 0
 3-21G
 ****
 48 0
 3-21G
 ****


