%nproc=1
%NoSave
%Mem=1900MB
#P OB98/GEN NMR

erre ene a

0 1
  C      156.907    -269.675     -88.880
  O      156.531    -270.304     -90.087
  H      156.764    -268.596     -88.985
  H      157.965    -269.867     -88.667
  H      156.293    -270.030     -88.046
  P      156.454    -271.904     -90.137
  C      158.575    -272.440     -91.506
  O      157.962    -272.439     -90.221
  C      159.229    -273.796     -91.772
  O      160.116    -274.140     -90.687
  C      158.241    -274.951     -91.879
  O      157.575    -274.933     -93.131
  C      159.169    -276.138     -91.661
  O      159.879    -276.460     -92.864
  C      160.130    -275.583     -90.582
  N      159.781    -276.012     -89.226
  C      160.500    -277.089     -88.717
  O      161.357    -277.694     -89.362
  N      160.186    -277.464     -87.437
  C      159.188    -276.935     -86.668
  O      158.910    -277.343     -85.542
  C      158.442    -275.822     -87.272
  C      158.765    -275.417     -88.501
  O      155.525    -272.480     -91.158
  O      156.014    -272.303     -88.646
  H      159.229    -276.854     -93.477
  H      155.056    -272.499     -88.630
  H      160.686    -278.251     -87.056
  H      157.639    -275.380     -86.692
  H      158.221    -274.602     -88.963
  H      161.158    -275.900     -90.788
  H      158.631    -277.040     -91.360
  H      157.515    -274.913     -91.054
  H      159.830    -273.710     -92.685
  H      159.340    -271.653     -91.534
  H      157.815    -272.224     -92.262
  P      156.101    -275.534     -93.283
  C      157.001    -277.870     -93.826
  O      156.178    -277.102     -92.954
  O      155.407    -275.200     -94.564
  O      155.306    -274.935     -92.025
  H      154.698    -274.232     -92.322
  H      156.984    -278.896     -93.522
  H      158.005    -277.503     -93.784
  H      156.633    -277.789     -94.827

 6  7  8  9  10  11  12  13  14  15  16  26  31  32  33  34  35 0
 6-311+G(2d,p)
 ****
 36  37 0
 6-311+G(2d,p)
 ****
 1  2  3  4  5  17  18  19  20  21  22  23  24  25 0
 3-21G
 ****
 27  28  29  30  38  39  40  41  42  43  44  45 0
 3-21G
 ****


