%nproc=1
%NoSave
%Mem=1900MB
#P OB98/GEN NMR

erre ene a

0 1
  C       62.925      42.840     163.107
  O       64.021      43.504     162.508
  H       63.095      41.759     163.111
  H       62.828      43.184     164.141
  H       62.000      43.073     162.569
  P       64.316      43.157     160.968
  C       65.790      41.140     161.679
  O       64.675      41.593     160.926
  C       66.366      39.871     161.058
  O       65.462      38.761     161.267
  C       66.588      39.942     159.553
  O       67.789      40.626     159.225
  C       66.681      38.461     159.209
  O       67.991      37.965     159.540
  C       65.632      37.849     160.151
  N       63.104      35.193     156.578
  C       64.379      35.118     157.026
  N       64.972      35.847     157.994
  C       64.102      36.717     158.534
  C       62.766      36.891     158.202
  C       62.267      36.085     157.165
  N       60.975      36.217     156.670
  N       62.199      37.893     158.965
  C       63.179      38.324     159.733
  N       64.345      37.639     159.515
  O       65.723      43.879     160.703
  O       63.271      43.610     160.002
  H       68.623      38.441     158.972
  H       65.564      44.747     160.285
  H       65.005      34.376     156.537
  H       63.093      39.127     160.452
  H       65.960      36.887     160.568
  H       66.517      38.255     158.146
  H       65.724      40.376     159.035
  H       67.303      39.635     161.580
  H       65.473      40.929     162.707
  H       60.893      35.957     155.690
  H       60.501      37.064     156.961
  H       66.547      41.932     161.693
  P       67.875      41.347     157.793
  C       69.347      39.563     156.632
  O       68.067      40.180     156.707
  O       69.305      42.063     157.842
  O       66.788      42.328     157.505
  H       69.200      43.020     157.670
  H       69.336      38.809     155.873
  H       69.583      39.116     157.575
  H       70.085      40.300     156.392

 6  7  8  9  10  11  12  13  14  15  25  28  32  33  34  35 0
 6-311+G(2d,p)
 ****
 36  39  40 0
 6-311+G(2d,p)
 ****
 1  2  3  4  5  16  17  18  19  20  21  22  23  24 0
 3-21G
 ****
 26  27  29  30  31  37  38  41  42  43  44  45  46  47  48 0
 3-21G
 ****


