%nproc=1
%NoSave
%Mem=1900MB
#P OB98/GEN NMR

erre ene a

0 1
  C       47.196    -140.797    -156.882
  O       47.925    -139.781    -157.537
  H       46.274    -140.364    -156.486
  H       47.773    -141.205    -156.049
  H       46.933    -141.595    -157.581
  P       49.333    -140.161    -158.207
  C       51.291    -141.617    -157.338
  O       50.184    -140.797    -157.000
  C       51.918    -142.203    -156.077
  O       51.171    -143.342    -155.601
  C       53.340    -142.725    -156.252
  O       54.315    -141.704    -156.368
  C       53.486    -143.521    -154.968
  O       53.694    -142.623    -153.864
  C       52.101    -144.203    -154.884
  N       52.100    -145.548    -155.457
  C       52.312    -146.608    -154.568
  O       52.497    -146.396    -153.371
  N       52.343    -147.890    -155.061
  C       52.200    -148.094    -156.334
  N       52.248    -149.384    -156.769
  C       51.995    -147.006    -157.309
  C       51.953    -145.774    -156.809
  O       50.013    -139.068    -158.966
  O       49.018    -141.454    -159.095
  H       53.074    -141.881    -153.982
  H       49.856    -141.725    -159.542
  H       51.911    -147.227    -158.362
  H       51.812    -144.920    -157.463
  H       51.755    -144.260    -153.845
  H       54.328    -144.215    -154.983
  H       53.400    -143.420    -157.099
  H       51.866    -141.434    -155.296
  H       52.390    -150.108    -156.078
  H       52.013    -141.005    -157.888
  H       52.221    -149.629    -157.750
  H       50.965    -142.442    -157.978
  P       55.804    -142.161    -156.770
  C       57.522    -143.863    -155.787
  O       56.253    -143.242    -155.677
  O       56.681    -140.871    -156.430
  O       55.968    -142.614    -158.187
  H       56.857    -140.349    -157.238
  H       57.654    -144.551    -154.978
  H       58.288    -143.117    -155.749
  H       57.582    -144.389    -156.717

 6  7  8  9  10  11  12  13  14  15  16  26  30  31  32  33  35 0
 6-311+G(2d,p)
 ****
 37  38 0
 6-311+G(2d,p)
 ****
 1  2  3  4  5  17  18  19  20  21  22  23  24  25 0
 3-21G
 ****
 27  28  29  34  36  39  40  41  42  43  44  45  46 0
 3-21G
 ****


