%nproc=1
%NoSave
%Mem=1900MB
#P OB98/GEN NMR

erre ene a

0 1
  C      270.278     -67.306     219.170
  O      269.497     -66.635     220.167
  P      269.025     -67.328     221.540
  C      266.528     -66.756     221.912
  O      267.879     -66.412     222.194
  C      265.709     -65.508     221.569
  O      265.988     -65.085     220.213
  C      264.200     -65.688     221.602
  O      263.693     -65.778     222.922
  C      263.733     -64.454     220.832
  O      263.649     -63.304     221.686
  C      264.868     -64.261     219.804
  N      264.462     -64.572     218.443
  C      263.986     -63.503     217.672
  O      263.852     -62.386     218.171
  N      263.663     -63.737     216.358
  C      263.705     -64.946     215.889
  N      263.391     -65.113     214.575
  C      264.068     -66.117     216.706
  C      264.433     -65.860     217.961
  O      270.147     -67.646     222.473
  O      268.249     -68.657     221.096
  H      268.300     -69.317     221.812
  H      263.280     -62.579     221.145
  H      264.050     -67.115     216.286
  H      264.731     -66.663     218.628
  H      265.240     -63.230     219.844
  H      262.744     -64.599     220.381
  H      263.931     -66.592     221.036
  H      266.011     -64.702     222.255
  H      263.157     -64.286     214.041
  H      266.098     -67.225     222.805
  H      263.415     -66.008     214.104
  H      266.500     -67.479     221.093
  P      262.658     -66.965     223.222
  C      260.594     -65.829     224.321
  O      261.799     -66.551     224.511
  O      263.590     -68.156     223.753
  O      261.847     -67.398     222.042
  H      263.266     -69.006     223.405
  H      259.922     -66.047     225.156
  H      260.101     -66.110     223.385
  H      260.815     -64.760     224.313
  H      270.463     -66.639     218.354
  H      269.744     -68.163     218.816
  H      271.209     -67.616     219.596

 3  4  5  6  7  8  9  10  11  12  13  24  27  28  29  30  32 0
 6-311+G(2d,p)
 ****
 34  35 0
 6-311+G(2d,p)
 ****
 1  2  14  15  16  17  18  19  20  21  22  23  25  26 0
 3-21G
 ****
 31  33  36  37  38  39  40  41  42  43  44  45  46 0
 3-21G
 ****


