%nproc=1
%NoSave
%Mem=1900MB
#P OB98/GEN NMR

erre ene a

0 1
  C     1418.342    -630.693     337.624
  O     1417.725    -631.634     336.762
  P     1418.345    -633.104     336.466
  C     1416.319    -634.471     337.397
  O     1417.689    -634.117     337.496
  C     1415.420    -633.717     338.431
  O     1415.413    -632.296     338.109
  C     1413.989    -634.183     338.330
  O     1413.571    -635.355     339.012
  C     1413.136    -632.933     338.651
  O     1412.776    -632.880     340.041
  C     1414.110    -631.773     338.284
  N     1410.479    -628.912     336.082
  C     1410.458    -629.544     337.276
  N     1409.347    -629.412     338.018
  N     1411.477    -630.218     337.785
  C     1412.542    -630.346     336.903
  C     1412.657    -629.786     335.674
  C     1411.538    -628.940     335.165
  O     1411.548    -628.364     334.112
  N     1413.844    -630.117     335.086
  C     1414.442    -630.878     335.969
  N     1413.635    -631.058     337.129
  O     1419.834    -633.149     336.276
  O     1417.648    -633.497     335.047
  H     1413.570    -633.052     340.555
  H     1418.333    -634.039     334.567
  H     1409.693    -628.361     335.754
  H     1415.415    -631.347     335.836
  H     1414.156    -631.048     339.097
  H     1412.204    -632.939     338.083
  H     1408.490    -628.995     337.640
  H     1413.788    -634.370     337.240
  H     1409.250    -630.053     338.809
  H     1415.845    -633.775     339.445
  H     1416.237    -635.543     337.559
  H     1415.955    -634.299     336.388
  P     1413.478    -636.841     338.382
  C     1414.456    -638.302     340.264
  O     1414.693    -637.691     339.022
  O     1413.929    -636.646     336.860
  O     1412.116    -637.492     338.488
  H     1413.667    -637.424     336.335
  H     1415.394    -638.567     340.718
  H     1413.854    -639.216     340.123
  H     1413.907    -637.609     340.968
  H     1417.751    -629.802     337.661
  H     1419.319    -630.458     337.255
  H     1418.422    -631.109     338.607

 3  4  5  6  7  8  9  10  11  12  23  26  30  31 0
 6-311+G(2d,p)
 ****
 33  35  36  37  38 0
 6-311+G(2d,p)
 ****
 1  2  13  14  15  16  17  18  19  20  21  22  24  25 0
 3-21G
 ****
 27  28  29  32  34  39  40  41  42  43  44  45  46  47  48  49 0
 3-21G
 ****


