%nproc=1
%NoSave
%Mem=1900MB
#P OB98/GEN NMR

erre ene a

0 1
  C     1250.981    1506.013    -807.479
  O     1250.339    1504.808    -807.826
  H     1250.376    1506.847    -807.851
  H     1251.966    1506.056    -807.951
  H     1251.086    1506.099    -806.397
  P     1251.052    1503.442    -807.353
  C     1249.725    1503.567    -805.109
  O     1251.002    1503.471    -805.748
  C     1249.919    1503.783    -803.602
  O     1250.547    1502.627    -803.022
  C     1250.784    1505.035    -803.270
  O     1250.176    1505.735    -802.176
  C     1252.110    1504.422    -802.843
  O     1252.830    1505.273    -801.963
  C     1251.672    1503.061    -802.256
  N     1252.759    1502.076    -802.325
  C     1253.284    1501.635    -801.077
  O     1252.846    1502.088    -800.014
  N     1254.329    1500.738    -801.091
  C     1254.829    1500.352    -802.212
  N     1255.875    1499.484    -802.145
  C     1254.331    1500.823    -803.519
  C     1253.312    1501.662    -803.510
  O     1252.585    1503.684    -807.694
  O     1250.487    1502.187    -807.957
  H     1252.194    1505.616    -801.308
  H     1253.112    1502.857    -807.655
  H     1254.808    1500.475    -804.455
  H     1252.887    1502.078    -804.406
  H     1251.373    1503.188    -801.203
  H     1252.734    1504.260    -803.747
  H     1250.904    1505.690    -804.100
  H     1248.917    1503.864    -803.139
  H     1256.180    1499.180    -801.222
  H     1249.181    1502.628    -805.278
  H     1256.370    1499.130    -802.971
  H     1249.169    1504.400    -805.543
  P     1249.218    1506.950    -802.600
  C     1246.930    1505.822    -802.005
  O     1247.794    1506.306    -803.032
  O     1249.839    1507.439    -803.984
  O     1249.131    1508.011    -801.593
  H     1250.390    1508.222    -803.845
  H     1246.037    1505.430    -802.445
  H     1246.679    1506.624    -801.343
  H     1247.426    1505.049    -801.457

 6  7  8  9  10  11  12  13  14  15  16  26  30  31  32  33  35 0
 6-311+G(2d,p)
 ****
 37  38 0
 6-311+G(2d,p)
 ****
 1  2  3  4  5  17  18  19  20  21  22  23  24  25 0
 3-21G
 ****
 27  28  29  34  36  39  40  41  42  43  44  45  46 0
 3-21G
 ****


