%nproc=1
%NoSave
%Mem=1900MB
#P OB98/GEN NMR

erre ene a

0 1
  C      159.230     291.825     260.385
  O      159.052     291.406     259.047
  H      159.997     292.602     260.440
  H      158.286     292.236     260.756
  H      159.516     290.975     261.013
  P      160.338     290.801     258.303
  C      159.749     288.266     258.362
  O      160.519     289.326     258.912
  C      160.220     286.942     258.952
  O      159.451     285.849     258.399
  C      161.678     286.617     258.650
  O      162.576     287.268     259.534
  C      161.684     285.114     258.865
  O      161.692     284.824     260.274
  C      160.337     284.708     258.245
  N      161.886     281.173     254.882
  C      161.886     281.194     256.233
  N      161.434     282.164     257.053
  C      160.937     283.191     256.349
  C      160.866     283.311     254.969
  C      161.377     282.237     254.219
  N      161.409     282.227     252.843
  N      160.308     284.523     254.615
  C      160.034     285.116     255.759
  N      160.426     284.364     256.835
  O      161.564     291.607     258.943
  O      160.315     290.856     256.811
  H      161.521     283.868     260.370
  H      162.370     291.481     258.408
  H      162.302     280.315     256.717
  H      159.567     286.085     255.862
  H      159.876     283.856     258.759
  H      162.561     284.628     258.430
  H      161.929     286.830     257.602
  H      160.036     286.962     260.033
  H      159.885     288.255     257.276
  H      161.928     281.483     252.400
  H      161.171     283.071     252.345
  H      158.692     288.428     258.591
  P      164.144     287.181     259.192
  C      164.551     289.557     258.222
  O      164.391     288.169     257.951
  O      164.290     285.729     258.542
  O      165.047     287.373     260.367
  H      165.165     285.345     258.742
  H      164.707     290.084     257.304
  H      165.396     289.700     258.863
  H      163.671     289.930     258.703

 6  7  8  9  10  11  12  13  14  15  25  28  32  33  34  35 0
 6-311+G(2d,p)
 ****
 36  39  40 0
 6-311+G(2d,p)
 ****
 1  2  3  4  5  16  17  18  19  20  21  22  23  24 0
 3-21G
 ****
 26  27  29  30  31  37  38  41  42  43  44  45  46  47 0
 3-21G
 ****
 48 0
 3-21G
 ****


