%nproc=1
%NoSave
%Mem=1900MB
#P OB98/GEN NMR

erre ene a

0 1
  C     -176.102      26.142    -127.176
  O     -176.447      26.875    -125.994
  P     -176.414      28.477    -125.923
  C     -178.954      28.860    -125.683
  O     -177.794      29.061    -126.487
  C     -179.723      30.167    -125.466
  O     -180.400      30.566    -126.672
  C     -180.808      30.099    -124.397
  O     -180.250      30.127    -123.097
  C     -181.651      31.320    -124.757
  O     -181.078      32.521    -124.214
  C     -181.568      31.319    -126.296
  N     -182.772      30.787    -126.922
  C     -183.423      31.623    -127.837
  O     -183.011      32.764    -128.042
  N     -184.540      31.146    -128.481
  C     -185.010      29.974    -128.178
  N     -186.114      29.554    -128.853
  C     -184.408      29.103    -127.153
  C     -183.304      29.567    -126.573
  O     -175.198      29.088    -126.539
  O     -176.478      28.824    -124.358
  H     -180.134      32.516    -124.465
  H     -175.993      29.655    -124.195
  H     -184.845      28.146    -126.910
  H     -182.790      28.986    -125.816
  H     -181.403      32.339    -126.670
  H     -182.674      31.250    -124.376
  H     -181.409      29.191    -124.535
  H     -178.992      30.949    -125.217
  H     -186.500      30.174    -129.553
  H     -178.635      28.463    -124.714
  H     -186.557      28.660    -128.695
  H     -179.596      28.119    -126.171
  P     -180.804      29.131    -121.970
  C     -178.732      27.659    -121.620
  O     -180.045      27.731    -122.144
  O     -182.290      29.039    -121.867
  O     -180.171      29.706    -120.614
  H     -180.787      29.529    -119.879
  H     -178.487      26.610    -121.433
  H     -178.650      28.215    -120.684
  H     -178.026      28.062    -122.349
  H     -176.198      25.093    -126.986
  H     -175.092      26.364    -127.451
  H     -176.759      26.421    -127.973

 3  4  5  6  7  8  9  10  11  12  13  23  27  28  29  30  32 0
 6-311+G(2d,p)
 ****
 34  35 0
 6-311+G(2d,p)
 ****
 1  2  14  15  16  17  18  19  20  21  22  24  25  26 0
 3-21G
 ****
 31  33  36  37  38  39  40  41  42  43  44  45  46 0
 3-21G
 ****


