%nproc=1
%NoSave
%Mem=1900MB
#P OB98/GEN NMR

erre ene a

0 1
  C     -196.435     294.224     307.828
  O     -195.564     295.346     307.820
  P     -193.988     295.085     307.690
  C     -192.522     296.577     309.238
  O     -193.242     296.471     308.024
  C     -191.944     297.988     309.395
  O     -190.881     298.191     308.417
  C     -192.973     299.111     309.189
  O     -192.619     300.195     310.062
  C     -192.727     299.522     307.751
  O     -193.234     300.807     307.437
  C     -191.199     299.394     307.689
  N     -190.687     299.352     306.319
  C     -190.405     300.565     305.703
  O     -190.565     301.661     306.243
  N     -189.982     300.488     304.404
  C     -189.906     299.359     303.648
  O     -189.635     299.370     302.450
  C     -190.213     298.098     304.349
  C     -190.582     298.156     305.629
  O     -193.775     294.909     306.117
  O     -193.485     293.910     308.461
  H     -194.198     300.777     307.551
  H     -193.706     293.962     305.882
  H     -189.765     301.360     303.937
  H     -190.140     297.179     303.784
  H     -190.838     297.249     306.167
  H     -190.734     300.229     308.230
  H     -193.216     298.800     307.077
  H     -194.006     298.797     309.373
  H     -191.488     298.075     310.393
  H     -191.703     295.858     309.233
  H     -193.178     296.331     310.085
  P     -193.788     300.867     310.941
  C     -193.632     303.031     309.469
  O     -193.640     302.454     310.760
  O     -193.238     300.594     312.422
  O     -195.143     300.291     310.685
  H     -192.284     300.764     312.508
  H     -194.287     302.481     308.783
  H     -192.613     303.026     309.080
  H     -193.982     304.058     309.539
  H     -197.447     294.559     307.920
  H     -196.193     293.590     308.655
  H     -196.322     293.678     306.915

 3  4  5  6  7  8  9  10  11  12  13  23  28  29  30  31  32 0
 6-311+G(2d,p)
 ****
 33  34 0
 6-311+G(2d,p)
 ****
 1  2  14  15  16  17  18  19  20  21  22  24  25  26 0
 3-21G
 ****
 27  35  36  37  38  39  40  41  42  43  44  45 0
 3-21G
 ****


