%nproc=1
%NoSave
%Mem=1900MB
#P OB98/GEN NMR

erre ene a

0 1
  C      378.062    -376.735     127.461
  O      377.168    -375.877     128.184
  P      375.842    -375.371     127.434
  C      375.623    -373.167     128.803
  O      375.033    -374.402     128.426
  C      375.520    -372.969     130.321
  O      376.482    -373.770     131.034
  C      375.782    -371.535     130.768
  O      374.628    -370.725     130.619
  C      376.099    -371.737     132.238
  O      374.876    -371.898     132.983
  C      376.883    -373.055     132.227
  N      381.291    -374.140     134.605
  C      380.008    -374.442     134.904
  N      378.882    -374.097     134.231
  C      379.187    -373.385     133.132
  C      380.448    -373.003     132.706
  C      381.533    -373.410     133.494
  N      382.843    -373.101     133.184
  N      380.368    -372.268     131.538
  C      379.079    -372.218     131.262
  N      378.326    -372.877     132.205
  O      374.932    -376.685     127.381
  O      376.090    -374.822     126.068
  H      374.296    -372.490     132.460
  H      374.409    -376.692     126.562
  H      379.859    -375.033     135.802
  H      378.641    -371.731     130.405
  H      376.648    -373.693     133.085
  H      376.628    -370.889     132.678
  H      376.658    -371.117     130.250
  H      374.515    -373.273     130.635
  H      375.134    -372.342     128.286
  H      383.572    -373.452     133.784
  H      383.033    -372.574     132.344
  H      376.669    -373.161     128.476
  P      374.848    -369.217     130.114
  C      373.656    -368.093     132.134
  O      373.649    -368.365     130.747
  O      374.488    -369.299     128.559
  O      376.225    -368.685     130.347
  H      375.004    -368.637     128.064
  H      372.958    -367.274     132.341
  H      374.660    -367.797     132.473
  H      373.329    -368.981     132.693
  H      378.894    -376.989     128.084
  H      378.412    -376.229     126.586
  H      377.546    -377.627     127.174

 3  4  5  6  7  8  9  10  11  12  22  25  29  30  31  32 0
 6-311+G(2d,p)
 ****
 33  36  37 0
 6-311+G(2d,p)
 ****
 1  2  13  14  15  16  17  18  19  20  21  23  24  26 0
 3-21G
 ****
 27  28  34  35  38  39  40  41  42  43  44  45  46  47  48 0
 3-21G
 ****


