%nproc=1
%NoSave
%Mem=1900MB
#P OB98/GEN NMR

erre ene a

0 1
  C     -450.114      50.671     -84.821
  O     -449.341      51.252     -83.791
  H     -449.791      51.089     -85.780
  H     -451.172      50.904     -84.678
  H     -449.974      49.587     -84.848
  P     -449.519      50.714     -82.291
  C     -447.214      49.592     -82.558
  O     -448.563      49.436     -82.140
  C     -446.276      49.397     -81.367
  O     -446.508      48.111     -80.752
  C     -444.797      49.419     -81.739
  O     -444.359      50.741     -81.986
  C     -444.191      48.751     -80.512
  O     -444.087      49.676     -79.420
  C     -445.248      47.661     -80.201
  N     -444.879      46.345     -80.729
  C     -445.260      45.248     -79.963
  O     -445.869      45.347     -78.895
  N     -444.877      44.023     -80.443
  C     -444.089      43.808     -81.538
  O     -443.586      42.721     -81.806
  C     -443.781      44.995     -82.348
  C     -444.169      46.197     -81.904
  O     -450.927      50.510     -81.838
  O     -448.773      51.821     -81.403
  H     -449.438      52.416     -81.003
  H     -443.888      49.145     -78.623
  H     -445.108      43.224     -79.871
  H     -443.211      44.859     -83.260
  H     -443.928      47.090     -82.468
  H     -445.390      47.566     -79.115
  H     -443.190      48.363     -80.703
  H     -444.619      48.778     -82.615
  H     -446.500      50.173     -80.624
  H     -447.091      50.605     -82.957
  H     -446.997      48.866     -83.349
  P     -443.192      51.044     -83.040
  C     -444.786      51.343     -85.026
  O     -443.707      50.591     -84.489
  O     -441.849      50.516     -82.664
  O     -443.170      52.644     -83.149
  H     -442.257      52.962     -82.990
  H     -445.046      50.956     -85.989
  H     -444.494      52.368     -85.120
  H     -445.631      51.271     -84.373

 6  7  8  9  10  11  12  13  14  15  16  27  31  32  33  34  35 0
 6-311+G(2d,p)
 ****
 36  37 0
 6-311+G(2d,p)
 ****
 1  2  3  4  5  17  18  19  20  21  22  23  24  25 0
 3-21G
 ****
 26  28  29  30  38  39  40  41  42  43  44  45 0
 3-21G
 ****


