%nproc=1
%NoSave
%Mem=1900MB
#P OB98/GEN NMR

erre ene a

0 1
  C       14.771      81.021     -90.178
  O       13.621      81.688     -89.643
  P       13.371      81.888     -88.066
  C       11.018      80.842     -87.910
  O       12.384      80.738     -87.535
  C       10.087      80.228     -86.855
  O       10.233      78.771     -86.843
  C       10.338      80.721     -85.416
  O        9.055      80.849     -84.796
  C       11.137      79.568     -84.818
  O       11.148      79.558     -83.404
  C       10.397      78.386     -85.461
  N       11.075      77.095     -85.362
  C       11.136      76.485     -84.102
  O       10.688      77.037     -83.097
  N       11.735      75.250     -83.997
  C       12.232      74.676     -85.050
  N       12.797      73.448     -84.879
  C       12.207      75.289     -86.392
  C       11.619      76.482     -86.473
  O       12.923      83.267     -87.701
  O       14.773      81.547     -87.365
  H       14.898      82.133     -86.594
  H       11.356      78.652     -83.109
  H       12.627      74.775     -87.243
  H       11.535      76.988     -87.430
  H        9.393      78.304     -85.027
  H       12.171      79.643     -85.166
  H       10.851      81.688     -85.368
  H        9.050      80.435     -87.152
  H       12.787      73.057     -83.941
  H       10.875      80.309     -88.856
  H       13.207      72.910     -85.629
  H       10.768      81.900     -88.068
  P        8.517      82.303     -84.376
  C        9.417      82.356     -81.926
  O        9.497      82.875     -83.241
  O        7.209      81.935     -83.520
  O        8.158      83.228     -85.495
  H        6.585      82.688     -83.546
  H       10.430      82.178     -81.554
  H        8.857      81.418     -81.882
  H        8.928      83.097     -81.281
  H       14.714      81.013     -91.246
  H       14.801      80.015     -89.815
  H       15.657      81.537     -89.872

 3  4  5  6  7  8  9  10  11  12  13  24  27  28  29  30  32 0
 6-311+G(2d,p)
 ****
 34  35 0
 6-311+G(2d,p)
 ****
 1  2  14  15  16  17  18  19  20  21  22  23  25  26 0
 3-21G
 ****
 31  33  36  37  38  39  40  41  42  43  44  45  46 0
 3-21G
 ****


