%nproc=1
%NoSave
%Mem=1900MB
#P OB98/GEN NMR

erre ene a

0 1
  C      572.285     201.916    -603.852
  O      571.306     202.569    -603.037
  P      570.359     203.664    -603.742
  C      571.216     205.530    -602.117
  O      570.122     204.837    -602.699
  C      570.808     206.169    -600.767
  O      569.835     207.212    -601.037
  C      570.134     205.227    -599.781
  O      570.194     205.825    -598.471
  C      568.699     205.244    -600.263
  O      567.798     204.788    -599.261
  C      568.516     206.727    -600.690
  N      567.599     206.896    -601.843
  C      566.244     206.669    -601.651
  O      565.749     206.322    -600.575
  N      565.441     206.806    -602.750
  C      565.855     207.185    -604.003
  O      565.109     207.206    -604.977
  C      567.270     207.565    -604.124
  C      568.062     207.384    -603.062
  O      568.943     202.915    -603.841
  O      570.848     204.105    -605.087
  H      566.888     205.008    -599.579
  H      568.776     202.637    -604.766
  H      564.461     206.571    -602.646
  H      567.608     207.930    -605.075
  H      569.120     207.648    -603.142
  H      568.114     207.336    -599.873
  H      568.586     204.597    -601.128
  H      570.546     204.223    -599.744
  H      571.687     206.640    -600.319
  H      571.599     206.284    -602.798
  H      572.036     204.817    -601.934
  P      571.322     205.280    -597.455
  C      569.919     204.765    -595.367
  O      570.832     205.670    -595.982
  O      572.732     205.643    -597.788
  O      571.094     203.689    -597.492
  H      571.896     203.230    -597.167
  H      570.054     204.810    -594.277
  H      570.065     203.742    -595.704
  H      568.893     205.094    -595.602
  H      572.838     201.220    -603.257
  H      572.953     202.645    -604.260
  H      571.796     201.395    -604.648

 3  4  5  6  7  8  9  10  11  12  13  23  28  29  30  31  32 0
 6-311+G(2d,p)
 ****
 33  34 0
 6-311+G(2d,p)
 ****
 1  2  14  15  16  17  18  19  20  21  22  24  25  26  27 0
 3-21G
 ****
 35  36  37  38  39  40  41  42  43  44  45 0
 3-21G
 ****


