%nproc=1
%NoSave
%Mem=1900MB
#P OB98/GEN NMR

erre ene a

0 1
  C       89.068     -37.165      -0.813
  O       88.175     -36.133      -1.201
  P       88.648     -34.610      -1.022
  C       87.611     -34.264       1.337
  O       88.795     -34.320       0.552
  C       87.641     -33.059       2.277
  O       88.548     -33.323       3.382
  C       88.105     -31.763       1.610
  O       87.416     -30.648       2.193
  C       89.565     -31.657       2.015
  O       90.032     -30.312       1.953
  C       89.511     -32.252       3.425
  N       94.249     -30.914       4.585
  C       93.127     -30.119       4.426
  N       93.313     -28.786       4.507
  N       91.925     -30.596       4.221
  C       91.890     -31.956       4.153
  C       92.928     -32.845       4.308
  C       94.256     -32.300       4.528
  O       95.295     -32.947       4.652
  N       92.495     -34.144       4.215
  C       91.206     -34.041       3.961
  N       90.797     -32.737       3.880
  O       87.345     -33.782      -1.436
  O       89.824     -34.219      -1.859
  H       90.310     -30.146       1.033
  H       87.469     -33.389      -2.321
  H       95.155     -30.498       4.731
  H       90.535     -34.875       3.802
  H       89.150     -31.516       4.153
  H       90.187     -32.265       1.347
  H       94.225     -28.352       4.602
  H       87.978     -31.739       0.522
  H       92.518     -28.183       4.352
  H       86.638     -32.931       2.714
  H       87.530     -35.180       1.926
  H       86.739     -34.204       0.680
  P       87.340     -29.314       1.296
  C       89.461     -28.337       2.459
  O       88.833     -28.729       1.249
  O       86.553     -28.286       2.235
  O       86.675     -29.508      -0.027
  H       86.100     -27.611       1.694
  H       90.334     -28.977       2.622
  H       88.784     -28.421       3.321
  H       89.787     -27.299       2.368
  H       88.613     -38.117      -0.992
  H       89.294     -37.068       0.228
  H       89.970     -37.089      -1.383

 3  4  5  6  7  8  9  10  11  12  23  26  30  31 0
 6-311+G(2d,p)
 ****
 33  35  36  37  38 0
 6-311+G(2d,p)
 ****
 1  2  13  14  15  16  17  18  19  20  21  22  24  25 0
 3-21G
 ****
 27  28  29  32  34  39  40  41  42  43  44  45  46  47  48  49 0
 3-21G
 ****


