%nproc=1
%NoSave
%Mem=1900MB
#P OB98/GEN NMR

erre ene a

0 1
  C     -343.437      40.416      -2.199
  O     -344.770      39.948      -2.131
  H     -342.797      39.605      -2.557
  H     -343.095      40.722      -1.205
  H     -343.365      41.258      -2.893
  P     -345.883      41.005      -1.663
  C     -346.258      42.375       0.518
  O     -345.642      41.247      -0.095
  C     -345.882      42.434       1.996
  O     -344.448      42.576       2.122
  C     -346.479      43.614       2.750
  O     -347.834      43.388       3.105
  C     -345.544      43.705       3.948
  O     -345.920      42.784       4.979
  C     -344.192      43.296       3.347
  N     -341.651      47.139       5.532
  C     -342.358      46.112       6.054
  N     -342.994      45.116       5.400
  C     -342.832      45.244       4.071
  C     -342.145      46.239       3.396
  C     -341.528      47.224       4.186
  N     -340.837      48.291       3.656
  N     -342.246      46.058       2.030
  C     -342.971      44.966       1.884
  N     -343.341      44.439       3.089
  O     -347.234      40.144      -1.712
  O     -345.977      42.242      -2.492
  H     -346.751      43.120       5.367
  H     -347.679      40.285      -2.568
  H     -342.426      46.092       7.138
  H     -343.260      44.528       0.935
  H     -343.635      42.618       4.010
  H     -345.555      44.704       4.389
  H     -346.382      44.534       2.158
  H     -346.168      41.483       2.466
  H     -347.346      42.287       0.427
  H     -345.929      43.284       0.001
  H     -340.438      48.970       4.282
  H     -340.833      48.419       2.653
  P     -348.762      44.652       3.419
  C     -349.180      46.179       5.484
  O     -348.327      45.240       4.848
  O     -350.196      43.994       3.698
  O     -348.819      45.669       2.327
  H     -350.764      44.071       2.909
  H     -348.753      46.472       6.420
  H     -350.138      45.733       5.653
  H     -349.293      47.040       4.858

 6  7  8  9  10  11  12  13  14  15  25  28  32  33  34  35 0
 6-311+G(2d,p)
 ****
 36  37  40 0
 6-311+G(2d,p)
 ****
 1  2  3  4  5  16  17  18  19  20  21  22  23  24 0
 3-21G
 ****
 26  27  29  30  31  38  39 41  42  43  44  45  46  47  48 0
 3-21G
 ****


