%nproc=1
%NoSave
%Mem=1900MB
#P OB98/GEN NMR

erre ene a

0 1
  C     -181.760     -83.028     425.824
  O     -181.192     -83.599     424.662
  H     -181.174     -82.149     426.104
  H     -181.735     -83.743     426.654
  H     -182.790     -82.716     425.634
  P     -181.874     -84.915     424.051
  C     -179.722     -86.160     424.751
  O     -181.144     -86.155     424.757
  C     -179.192     -86.724     426.065
  O     -179.668     -85.939     427.178
  C     -179.620     -88.168     426.341
  O     -178.795     -89.074     425.626
  C     -179.421     -88.230     427.847
  O     -178.019     -88.365     428.145
  C     -179.928     -86.845     428.283
  N     -183.377     -86.372     431.972
  C     -182.001     -86.448     432.047
  N     -181.472     -86.437     433.293
  N     -181.217     -86.545     431.004
  C     -181.894     -86.610     429.835
  C     -183.258     -86.564     429.632
  C     -184.112     -86.401     430.784
  O     -185.336     -86.311     430.761
  N     -183.573     -86.732     428.308
  C     -182.403     -86.838     427.708
  N     -181.350     -86.789     428.592
  O     -181.915     -85.008     422.555
  O     -183.339     -84.930     424.696
  H     -177.548     -87.733     427.570
  H     -183.983     -84.480     424.117
  H     -183.931     -86.317     432.813
  H     -182.262     -86.956     426.639
  H     -179.395     -86.464     429.158
  H     -179.941     -89.070     428.310
  H     -182.027     -86.651     434.109
  H     -180.681     -88.324     426.120
  H     -180.466     -86.543     433.372
  H     -178.097     -86.638     426.053
  H     -179.388     -85.126     424.614
  H     -179.347     -86.764     423.914
  P     -179.429     -90.243     424.727
  C     -178.501     -91.937     426.437
  O     -179.640     -91.476     425.730
  O     -178.663     -90.571     423.490
  O     -180.928     -89.761     424.444
  H     -181.022     -89.196     423.639
  H     -178.779     -92.757     427.066
  H     -178.109     -91.143     427.038
  H     -177.755     -92.259     425.741

 6  7  8  9  10  11  12  13  14  15  26  29  33  34 0
 6-311+G(2d,p)
 ****
 36  38  39  40  41 0
 6-311+G(2d,p)
 ****
 1  2  3  4  5  16  17  18  19  20  21  22  23  24  25 0
 3-21G
 ****
 27  28  30  31  32  35  37  42  43  44  45  46  47 0
 3-21G
 ****
 48  49 0
 3-21G
 ****


