%nproc=1
%NoSave
%Mem=1900MB
#P OB98/GEN NMR

erre ene a

0 1
  C       44.520     555.432     203.769
  O       45.222     554.208     203.872
  H       44.735     556.038     204.651
  H       43.443     555.240     203.729
  H       44.835     555.976     202.873
  P       45.178     553.234     202.603
  C       43.200     552.005     203.819
  O       43.747     552.510     202.606
  C       42.586     550.626     203.584
  O       41.945     550.561     202.298
  C       43.600     549.501     203.544
  O       44.146     549.204     204.818
  C       42.746     548.379     202.966
  O       41.902     547.801     203.970
  C       41.901     549.152     201.924
  N       42.366     548.941     200.558
  C       41.420     549.165     199.552
  O       40.274     549.517     199.840
  N       41.776     548.938     198.247
  C       42.987     548.557     197.969
  N       43.286     548.347     196.655
  C       44.028     548.339     198.996
  C       43.650     548.547     200.259
  O       46.171     552.058     203.030
  O       45.511     553.878     201.296
  H       41.574     546.957     203.604
  H       45.953     551.654     203.894
  H       45.026     548.032     198.719
  H       44.349     548.408     201.069
  H       40.846     548.845     201.979
  H       43.351     547.568     202.554
  H       44.392     549.726     202.821
  H       41.827     550.457     204.357
  H       42.541     548.484     195.981
  H       42.463     552.698     204.235
  H       44.179     548.020     196.325
  H       44.020     551.928     204.543
  P       45.546     548.441     204.947
  C       44.493     546.115     205.296
  O       45.284     546.937     204.439
  O       46.210     548.544     206.273
  O       46.415     549.049     203.730
  H       46.025     548.914     202.851
  H       44.386     545.144     204.860
  H       43.527     546.558     205.423
  H       44.973     546.027     206.248

 6  7  8  9  10  11  12  13  14  15  16  26  30  31  32  33  35 0
 6-311+G(2d,p)
 ****
 37  38 0
 6-311+G(2d,p)
 ****
 1  2  3  4  5  17  18  19  20  21  22  23  24  25 0
 3-21G
 ****
 27  28  29  34  36  39  40  41  42  43  44  45  46 0
 3-21G
 ****


