%nproc=1
%NoSave
%Mem=1900MB
#P OB98/GEN NMR

erre ene a

0 1
  C     -893.740    -890.990    -920.379
  O     -894.770    -891.940    -920.196
  P     -895.770    -892.260    -921.407
  C     -894.600    -894.440    -922.242
  O     -895.790    -893.830    -921.715
  C     -894.860    -895.880    -922.645
  O     -894.990    -896.740    -921.461
  C     -896.150    -896.060    -923.413
  O     -896.190    -895.520    -924.711
  C     -896.420    -897.560    -923.263
  O     -895.660    -898.330    -924.216
  C     -895.890    -897.840    -921.828
  N     -896.970    -897.970    -920.848
  C     -897.810    -899.080    -921.040
  O     -897.700    -899.830    -921.997
  N     -898.820    -899.190    -920.092
  C     -899.070    -898.350    -919.053
  O     -900.000    -898.520    -918.258
  C     -898.140    -897.210    -918.896
  C     -897.160    -897.060    -919.804
  O     -895.620    -891.410    -922.618
  O     -897.210    -892.040    -920.740
  H     -896.040    -898.120    -925.096
  H     -897.790    -891.580    -921.391
  H     -899.440    -900.000    -920.211
  H     -898.320    -896.530    -918.105
  H     -896.480    -896.230    -919.706
  H     -895.300    -898.750    -921.812
  H     -897.480    -897.800    -923.404
  H     -896.940    -895.550    -922.859
  H     -893.990    -896.260    -923.182
  H     -893.820    -894.390    -921.473
  H     -894.250    -893.840    -923.097
  P     -897.440    -894.750    -925.300
  C     -896.290    -892.800    -926.555
  O     -897.000    -893.990    -926.658
  O     -898.320    -894.010    -924.398
  O     -898.320    -895.980    -925.910
  H     -899.260    -895.740    -925.822
  H     -896.050    -892.430    -927.521
  H     -895.330    -892.940    -926.011
  H     -896.890    -892.050    -925.982
  H     -893.172    -890.901    -919.477
  H     -894.169    -890.041    -920.625
  H     -893.099    -891.308    -921.174

 3  4  5  6  7  8  9  10  11  12  13  23  28  29  30  31  32 0
 6-311+G(2d,p)
 ****
 33  34 0
 6-311+G(2d,p)
 ****
 1  2  14  15  16  17  18  19  20  21  22  24  25  26  27 0
 3-21G
 ****
 35  36  37  38  39  40  41  42  43  44  45 0
 3-21G
 ****


