%nproc=1
%NoSave
%Mem=1900MB
#P OB98/GEN NMR

erre ene a

0 1
  C     -137.945    -185.044     -57.060
  O     -137.030    -184.289     -56.287
  P     -135.480    -184.689     -56.263
  C     -135.170    -183.648     -58.631
  O     -134.994    -184.769     -57.788
  C     -134.102    -182.580     -58.362
  O     -132.824    -183.115     -58.786
  C     -134.287    -181.280     -59.139
  O     -133.513    -180.259     -58.508
  C     -133.675    -181.628     -60.478
  O     -133.316    -180.469     -61.226
  C     -132.497    -182.553     -60.078
  N     -132.292    -183.627     -61.067
  C     -131.400    -183.367     -62.104
  O     -130.740    -182.332     -62.175
  N     -131.355    -184.302     -63.103
  C     -132.140    -185.416     -63.175
  O     -132.311    -186.065     -64.200
  C     -132.878    -185.755     -61.948
  C     -132.941    -184.844     -60.973
  O     -135.516    -186.218     -55.793
  O     -134.628    -183.853     -55.370
  H     -134.113    -179.891     -61.255
  H     -135.361    -186.279     -54.831
  H     -130.818    -184.044     -63.922
  H     -133.393    -186.704     -61.908
  H     -133.523    -185.046     -60.075
  H     -131.559    -181.990     -59.992
  H     -134.407    -182.190     -61.072
  H     -135.330    -180.961     -59.236
  H     -134.047    -182.383     -57.286
  H     -136.173    -183.238     -58.479
  H     -135.114    -183.952     -59.682
  P     -134.017    -178.743     -58.643
  C     -135.881    -179.059     -56.905
  O     -135.572    -178.749     -58.248
  O     -133.681    -178.053     -59.923
  O     -133.336    -178.022     -57.383
  H     -133.324    -177.056     -57.522
  H     -136.810    -178.553     -56.630
  H     -135.086    -178.736     -56.224
  H     -136.023    -180.139     -56.808
  H     -138.927    -184.632     -56.954
  H     -137.946    -186.059     -56.721
  H     -137.654    -185.012     -58.089

 3  4  5  6  7  8  9  10  11  12  13  23  28  29  30  31  32 0
 6-311+G(2d,p)
 ****
 33  34 0
 6-311+G(2d,p)
 ****
 1  2  14  15  16  17  18  19  20  21  22  24  25  26  27 0
 3-21G
 ****
 35  36  37  38  39  40  41  42  43  44  45 0
 3-21G
 ****


