%nproc=1
%NoSave
%Mem=1900MB
#P OB98/GEN NMR

erre ene a

0 1
  C      -25.863    -118.058    -129.485
  O      -25.358    -118.388    -128.206
  H      -26.835    -118.539    -129.614
  H      -25.184    -118.420    -130.262
  H      -25.988    -116.974    -129.574
  P      -23.899    -117.820    -127.849
  C      -22.725    -120.098    -127.457
  O      -22.853    -118.955    -128.291
  C      -21.562    -120.971    -127.924
  O      -21.807    -121.486    -129.249
  C      -20.216    -120.254    -127.971
  O      -19.603    -120.241    -126.692
  C      -19.460    -121.113    -128.977
  O      -18.946    -122.310    -128.353
  C      -20.558    -121.459    -129.993
  N      -18.118    -119.471    -133.944
  C      -17.668    -120.332    -132.960
  N      -16.368    -120.699    -133.018
  N      -18.422    -120.785    -131.993
  C      -19.685    -120.292    -132.025
  C      -20.245    -119.434    -132.943
  C      -19.414    -118.982    -134.038
  O      -19.774    -118.285    -134.985
  N      -21.561    -119.178    -132.643
  C      -21.781    -119.855    -131.530
  N      -20.670    -120.540    -131.112
  O      -23.854    -117.883    -126.247
  O      -23.607    -116.441    -128.340
  H      -18.303    -122.063    -127.669
  H      -23.373    -117.102    -125.916
  H      -17.499    -119.177    -134.681
  H      -22.724    -119.884    -130.996
  H      -20.415    -122.457    -130.422
  H      -18.596    -120.584    -129.386
  H      -15.686    -120.169    -133.544
  H      -20.326    -119.240    -128.372
  H      -16.025    -121.270    -132.257
  H      -21.512    -121.839    -127.247
  H      -23.654    -120.678    -127.504
  H      -22.555    -119.776    -126.425
  P      -18.778    -118.934    -126.263
  C      -16.798    -119.779    -127.718
  O      -17.634    -118.684    -127.364
  O      -17.962    -119.434    -124.978
  O      -19.618    -117.745    -125.932
  H      -18.364    -119.065    -124.166
  H      -16.090    -119.463    -128.456
  H      -17.397    -120.572    -128.115
  H      -16.277    -120.126    -126.850

 6  7  8  9  10  11  12  13  14  15  26  29  33  34 0
 6-311+G(2d,p)
 ****
 36  38  39  40  41 0
 6-311+G(2d,p)
 ****
 1  2  3  4  5  16  17  18  19  20  21  22  23  24  25 0
 3-21G
 ****
 27  28  30  31  32  35  37  42  43  44  45  46  47 0
 3-21G
 ****
 48  49 0
 3-21G
 ****


