%nproc=1
%NoSave
%Mem=1900MB
#P OB98/GEN NMR

erre ene a

0 1
  C      152.468     119.139      78.806
  O      153.817     119.610      78.762
  P      154.204     120.575      77.541
  C      156.363     121.929      78.048
  O      155.798     120.738      77.517
  C      157.825     121.698      78.428
  O      157.945     120.878      79.611
  C      158.620     120.967      77.352
  O      158.929     121.831      76.270
  C      159.828     120.499      78.157
  O      160.765     121.576      78.326
  C      159.194     120.146      79.513
  N      160.986     115.760      81.440
  C      161.483     117.017      81.441
  N      160.945     118.131      80.902
  C      159.763     117.857      80.328
  C      159.130     116.629      80.249
  C      159.792     115.540      80.838
  N      159.295     114.256      80.822
  N      157.930     116.740      79.576
  C      157.854     118.011      79.233
  N      158.932     118.727      79.673
  O      153.682     122.008      78.025
  O      153.589     120.174      76.241
  H      161.615     121.180      78.608
  H      152.897     122.269      77.511
  H      162.440     117.143      81.938
  H      157.043     118.453      78.668
  H      159.819     120.456      80.357
  H      160.363     119.669      77.685
  H      158.055     120.100      76.987
  H      158.284     122.674      78.631
  H      155.800     122.255      78.927
  H      159.871     113.520      81.200
  H      158.451     114.065      80.305
  H      156.269     122.728      77.302
  P      158.570     121.331      74.790
  C      158.053     123.812      74.370
  O      158.725     122.657      73.896
  O      156.988     121.150      74.883
  O      159.338     120.141      74.324
  H      156.564     121.909      75.326
  H      158.267     124.643      73.691
  H      158.403     124.069      75.371
  H      156.973     123.635      74.381
  H      152.338     118.509      79.661
  H      152.255     118.582      77.917
  H      151.801     119.973      78.872

 3  4  5  6  7  8  9  10  11  12  22  25  29  30  31  32 0
 6-311+G(2d,p)
 ****
 33  36  37 0
 6-311+G(2d,p)
 ****
 1  2  13  14  15  16  17  18  19  20  21  23  24  26 0
 3-21G
 ****
 27  28  34  35  38  39  40  41  42  43  44  45  46  47  48 0
 3-21G
 ****


