%nproc=1
%NoSave
%Mem=1900MB
#P OB98/GEN NMR

erre ene a

0 1
  C      958.802     205.333    -124.636
  O      958.487     204.400    -125.656
  H      959.622     204.922    -124.030
  H      957.940     205.506    -123.982
  H      959.136     206.281    -125.071
  P      957.266     204.744    -126.640
  C      955.694     203.350    -125.136
  O      955.915     204.597    -125.778
  C      954.202     203.147    -124.851
  O      953.497     203.345    -126.103
  C      953.865     201.756    -124.319
  O      953.128     201.764    -123.099
  C      953.242     201.055    -125.525
  O      952.351     200.003    -125.205
  C      952.611     202.219    -126.304
  N      952.433     201.950    -127.727
  C      951.234     201.375    -128.122
  O      950.298     201.094    -127.375
  N      951.116     201.112    -129.473
  C      952.052     201.373    -130.421
  O      951.878     201.124    -131.602
  C      953.310     201.969    -129.935
  C      953.442     202.230    -128.621
  O      957.270     203.994    -127.933
  O      957.375     206.321    -126.883
  H      951.786     199.848    -125.974
  H      957.778     206.492    -127.751
  H      950.236     200.696    -129.759
  H      954.077     202.179    -130.663
  H      954.354     202.668    -128.237
  H      951.643     202.464    -125.879
  H      954.057     200.619    -126.131
  H      954.805     201.206    -124.048
  H      953.864     203.942    -124.154
  H      956.259     203.347    -124.199
  H      956.060     202.534    -125.772
  P      953.776     201.630    -121.648
  C      952.438     199.429    -121.100
  O      953.698     200.099    -121.214
  O      953.314     202.647    -120.641
  O      955.353     201.882    -121.914
  H      955.702     202.326    -121.098
  H      952.599     198.415    -120.799
  H      951.938     199.445    -122.046
  H      951.835     199.926    -120.369

 6  7  8  9  10  11  12  13  14  15  16  26  31  32  33  34  35 0
 6-311+G(2d,p)
 ****
 36  37 0
 6-311+G(2d,p)
 ****
 1  2  3  4  5  17  18  19  20  21  22  23  24  25 0
 3-21G
 ****
 27  28  29  30  38  39  40  41  42  43  44  45 0
 3-21G
 ****


