%nproc=1
%NoSave
%Mem=1900MB
#P OB98/GEN NMR

erre ene a

0 1
  C      -42.597      23.742    -396.276
  O      -42.564      23.791    -397.693
  P      -42.438      25.194    -398.459
  C      -39.964      25.802    -398.101
  O      -41.307      26.037    -397.689
  C      -39.106      27.040    -397.865
  O      -39.438      28.041    -398.855
  C      -39.312      27.667    -396.489
  O      -38.063      28.186    -396.014
  C      -40.245      28.844    -396.751
  O      -40.090      29.867    -395.756
  C      -39.827      29.248    -398.167
  N      -42.720      33.455    -398.689
  C      -41.698      33.172    -397.857
  N      -40.989      32.022    -397.757
  C      -41.398      31.134    -398.678
  C      -42.429      31.289    -399.594
  C      -43.108      32.516    -399.581
  N      -44.141      32.815    -400.444
  N      -42.572      30.144    -400.358
  C      -41.642      29.326    -399.920
  N      -40.898      29.882    -398.909
  O      -43.721      25.924    -398.658
  O      -41.736      24.834    -399.850
  H      -40.272      29.453    -394.887
  H      -42.116      25.371    -400.570
  H      -41.410      33.968    -397.177
  H      -41.471      28.324    -400.290
  H      -38.961      29.924    -398.158
  H      -41.284      28.500    -396.718
  H      -39.733      26.968    -395.756
  H      -38.051      26.770    -398.005
  H      -39.966      25.568    -399.172
  H      -44.489      33.755    -400.443
  H      -44.314      32.187    -401.220
  H      -39.561      24.938    -397.560
  P      -37.585      27.652    -394.575
  C      -35.545      26.237    -395.354
  O      -36.868      26.252    -394.876
  O      -38.694      27.654    -393.578
  O      -36.396      28.676    -394.249
  H      -36.007      29.050    -395.069
  H      -35.245      25.200    -395.533
  H      -34.869      26.675    -394.610
  H      -35.467      26.796    -396.296
  H      -42.684      22.725    -395.956
  H      -43.437      24.301    -395.919
  H      -41.695      24.164    -395.883

 3  4  5  6  7  8  9  10  11  12  22  25  29  30  31  32 0
 6-311+G(2d,p)
 ****
 33  36  37 0
 6-311+G(2d,p)
 ****
 1  2  13  14  15  16  17  18  19  20  21  23  24  26 0
 3-21G
 ****
 27  28  34  35  38  39  40  41  42  43  44  45  46  47  48 0
 3-21G
 ****


