%nproc=1
%NoSave
%Mem=1900MB
#P OB98/GEN NMR

erre ene a

0 1
  C      103.408    -110.803     -27.173
  O      102.647    -109.735     -26.656
  P      101.574    -109.984     -25.492
  C       99.797    -110.422     -27.303
  O      100.431    -110.916     -26.127
  C       98.751    -111.418     -27.793
  O       99.355    -112.702     -28.100
  C       97.676    -111.747     -26.767
  O       96.796    -110.711     -26.394
  C       97.058    -112.997     -27.373
  O       96.123    -112.670     -28.400
  C       98.304    -113.693     -27.978
  N       98.730    -114.839     -27.179
  C       98.789    -116.058     -27.845
  O       98.508    -116.198     -29.034
  N       99.157    -117.137     -27.088
  C       99.420    -117.123     -25.748
  O       99.700    -118.137     -25.121
  C       99.324    -115.810     -25.095
  C       98.989    -114.743     -25.826
  O      101.068    -108.753     -24.820
  O      102.328    -110.999     -24.508
  H       95.752    -113.508     -28.737
  H      102.589    -111.844     -24.917
  H       99.194    -118.032     -27.547
  H       99.540    -115.762     -24.035
  H       98.911    -113.764     -25.365
  H       98.087    -114.046     -28.994
  H       96.523    -113.590     -26.625
  H       98.175    -112.056     -25.838
  H       98.319    -111.034     -28.721
  H      100.553    -110.286     -28.082
  H       99.350    -109.445     -27.093
  P       96.251    -110.509     -24.901
  C       94.239    -112.107     -25.248
  O       95.396    -111.803     -24.498
  O       95.675    -109.173     -24.572
  O       97.592    -110.723     -24.041
  H       97.543    -110.177     -23.234
  H       93.761    -112.987     -24.810
  H       94.505    -112.334     -26.285
  H       93.532    -111.273     -25.217
  H      104.063    -110.438     -27.936
  H      102.753    -111.540     -27.588
  H      103.986    -111.242     -26.387

 3  4  5  6  7  8  9  10  11  12  13  23  28  29  30  31  32 0
 6-311+G(2d,p)
 ****
 33  34 0
 6-311+G(2d,p)
 ****
 1  2  14  15  16  17  18  19  20  21  22  24  25  26  27 0
 3-21G
 ****
 35  36  37  38  39  40  41  42  43  44  45 0
 3-21G
 ****


