%nproc=1
%NoSave
%Mem=1900MB
#P OB98/GEN NMR

erre ene a

0 1
  C      -27.161     -62.990      63.363
  O      -27.197     -62.791      61.964
  H      -28.180     -63.159      63.721
  H      -26.757     -62.104      63.859
  H      -26.551     -63.864      63.607
  P      -25.788     -62.566      61.231
  C      -23.957     -60.723      61.335
  O      -25.291     -61.100      61.654
  C      -23.654     -59.349      61.926
  O      -23.751     -59.414      63.367
  C      -22.248     -58.839      61.633
  O      -22.141     -58.300      60.327
  C      -22.074     -57.801      62.734
  O      -22.667     -56.546      62.373
  C      -22.844     -58.426      63.904
  N      -20.714     -57.845      68.497
  C      -21.610     -57.098      67.816
  N      -22.144     -57.334      66.599
  C      -21.667     -58.482      66.089
  C      -20.747     -59.342      66.663
  C      -20.261     -58.988      67.931
  N      -19.323     -59.728      68.609
  N      -20.471     -60.393      65.811
  C      -21.218     -60.176      64.747
  N      -21.960     -59.037      64.875
  O      -26.209     -62.396      59.695
  O      -24.790     -63.658      61.422
  H      -23.633     -56.688      62.359
  H      -26.136     -63.255      59.239
  H      -21.939     -56.189      68.313
  H      -21.249     -60.806      63.866
  H      -23.453     -57.688      64.440
  H      -21.020     -57.614      62.941
  H      -21.514     -59.640      61.783
  H      -24.409     -58.640      61.566
  H      -23.844     -60.679      60.246
  H      -23.270     -61.476      61.735
  H      -19.002     -59.402      69.506
  H      -18.900     -60.524      68.150
  P      -20.705     -57.807      59.818
  C      -19.228     -55.696      60.169
  O      -20.358     -56.443      60.589
  O      -20.991     -57.333      58.317
  O      -19.632     -58.841      59.883
  H      -20.713     -58.021      57.684
  H      -19.133     -54.821      60.778
  H      -19.351     -55.407      59.146
  H      -18.347     -56.296      60.267

 6  7  8  9  10  11  12  13  14  15  25  28  32  33  34  35 0
 6-311+G(2d,p)
 ****
 36  37  40 0
 6-311+G(2d,p)
 ****
 1  2  3  4  5  16  17  18  19  20  21  22  23  24 0
 3-21G
 ****
 26  27  29  30  31  38  39 41  42  43  44  45  46  47  48 0
 3-21G
 ****


