%nproc=1
%NoSave
%Mem=1900MB
#P OB98/GEN NMR

erre ene a

0 1
  C      124.986    -446.364    -202.910
  O      125.597    -445.266    -203.589
  P      124.689    -444.008    -204.017
  C      124.571    -444.167    -206.575
  O      125.152    -443.500    -205.464
  C      125.534    -444.268    -207.772
  O      125.536    -443.020    -208.532
  C      126.990    -444.559    -207.392
  O      127.530    -445.399    -208.424
  C      127.631    -443.185    -207.419
  O      129.050    -443.245    -207.516
  C      126.906    -442.580    -208.634
  N      127.005    -441.125    -208.664
  C      128.055    -440.573    -209.403
  O      128.913    -441.302    -209.903
  N      128.126    -439.208    -209.519
  C      127.297    -438.464    -208.843
  N      127.387    -437.106    -209.011
  C      126.294    -439.008    -207.912
  C      126.182    -440.333    -207.899
  O      124.548    -442.935    -202.977
  O      123.263    -444.688    -204.327
  H      129.298    -443.744    -208.326
  H      122.551    -444.067    -204.058
  H      125.688    -438.347    -207.305
  H      125.475    -440.834    -207.256
  H      127.315    -442.980    -209.569
  H      127.373    -442.638    -206.499
  H      127.094    -445.072    -206.429
  H      125.168    -445.052    -208.448
  H      128.093    -436.742    -209.628
  H      123.672    -443.630    -206.887
  H      126.758    -436.471    -208.550
  H      124.234    -445.171    -206.261
  P      127.739    -446.964    -208.134
  C      130.205    -446.999    -208.950
  O      128.890    -447.494    -209.101
  O      126.417    -447.605    -208.793
  O      127.815    -447.357    -206.689
  H      126.229    -448.454    -208.357
  H      130.899    -447.672    -209.491
  H      130.500    -446.971    -207.902
  H      130.281    -445.998    -209.381
  H      125.725    -447.109    -202.700
  H      124.221    -446.785    -203.528
  H      124.555    -446.021    -201.993

 3  4  5  6  7  8  9  10  11  12  13  23  27  28  29  30  32 0
 6-311+G(2d,p)
 ****
 34  35 0
 6-311+G(2d,p)
 ****
 1  2  14  15  16  17  18  19  20  21  22  24  25  26 0
 3-21G
 ****
 31  33  36  37  38  39  40  41  42  43  44  45  46 0
 3-21G
 ****


