%nproc=1
%NoSave
%Mem=1900MB
#P OB98/GEN NMR

erre ene a

0 1
  C        8.405      31.115      19.706
  O        9.264      32.192      19.393
  H        7.834      31.371      20.602
  H        8.977      30.206      19.905
  H        7.704      30.941      18.885
  P       10.330      32.012      18.212
  C        9.093      33.915      16.994
  O       10.352      33.399      17.404
  C        9.226      35.369      16.538
  O        9.647      36.172      17.673
  C       10.244      35.567      15.409
  O        9.745      36.571      14.524
  C       11.466      36.069      16.150
  O       12.324      36.805      15.299
  C       10.846      36.873      17.297
  N       11.778      37.003      18.416
  C       12.435      38.231      18.543
  O       12.207      39.142      17.745
  N       13.381      38.381      19.523
  C       13.689      37.375      20.279
  N       14.663      37.580      21.205
  C       13.043      36.053      20.164
  C       12.105      35.938      19.224
  O       10.169      30.797      17.360
  O       11.739      32.012      18.972
  H       12.609      36.234      14.553
  H       11.990      31.101      19.211
  H       13.339      35.244      20.815
  H       11.586      35.001      19.060
  H       10.560      37.877      16.960
  H       12.033      35.218      16.547
  H       10.452      34.647      14.854
  H        8.235      35.733      16.242
  H       15.095      38.496      21.230
  H        8.413      33.860      17.851
  H       15.017      36.863      21.820
  H        8.688      33.303      16.183
  P        9.644      36.293      12.947
  C        7.680      34.674      12.686
  O        8.108      36.026      12.559
  O       10.602      35.270      12.430
  O        9.944      37.725      12.288
  H       10.366      37.596      11.417
  H        6.650      34.598      12.407
  H        7.799      34.356      13.701
  H        8.270      34.052      12.046

 6  7  8  9  10  11  12  13  14  15  16  26  30  31  32  33  35 0
 6-311+G(2d,p)
 ****
 37  38 0
 6-311+G(2d,p)
 ****
 1  2  3  4  5  17  18  19  20  21  22  23  24  25 0
 3-21G
 ****
 27  28  29  34  36  39  40  41  42  43  44  45  46 0
 3-21G
 ****


