%nproc=1
%NoSave
%Mem=1900MB
#P OB98/GEN NMR

erre ene a

0 1
  C      297.435      85.835     -85.966
  O      296.536      84.751     -85.846
  H      297.274      86.319     -86.932
  H      298.462      85.467     -85.922
  H      297.267      86.570     -85.171
  P      296.368      84.108     -84.383
  C      298.090      83.192     -82.670
  O      297.764      83.392     -84.038
  C      299.424      82.463     -82.544
  O      300.457      83.176     -83.255
  C      299.923      82.304     -81.110
  O      299.330      81.178     -80.473
  C      301.407      82.075     -81.351
  O      301.624      80.717     -81.794
  C      301.696      83.053     -82.499
  N      305.151      85.685     -79.875
  C      305.006      84.319     -80.030
  N      305.910      83.543     -79.389
  N      304.066      83.760     -80.746
  C      303.221      84.659     -81.311
  C      303.256      86.033     -81.225
  C      304.312      86.638     -80.445
  O      304.490      87.842     -80.285
  N      302.234      86.608     -81.932
  C      301.567      85.583     -82.426
  N      302.125      84.377     -82.077
  O      295.368      82.885     -84.650
  O      295.831      85.031     -83.340
  H      301.347      80.133     -81.066
  H      294.473      83.138     -84.352
  H      305.887      86.063     -79.306
  H      300.683      85.658     -83.049
  H      302.461      82.674     -83.183
  H      302.007      82.214     -80.448
  H      306.646      83.907     -78.802
  H      299.780      83.223     -80.526
  H      305.823      82.537     -79.491
  H      299.317      81.481     -83.026
  H      297.303      82.594     -82.199
  H      298.147      84.166     -82.171
  P      299.608      80.960     -78.908
  C      301.670      80.372     -77.445
  O      301.177      80.645     -78.750
  O      298.911      79.547     -78.623
  O      299.070      82.022     -78.010
  H      298.124      79.672     -78.054
  H      302.722      80.182     -77.494
  H      301.171      79.513     -77.048
  H      301.489      81.215     -76.812

 6  7  8  9  10  11  12  13  14  15  26  29  33  34 0
 6-311+G(2d,p)
 ****
 36  38  39  40  41 0
 6-311+G(2d,p)
 ****
 1  2  3  4  5  16  17  18  19  20  21  22  23  24  25 0
 3-21G
 ****
 27  28  30  31  32  35  37  42  43  44  45  46  47 0
 3-21G
 ****
 48  49 0
 3-21G
 ****


