%nproc=1
%NoSave
%Mem=1900MB
#P OB98/GEN NMR

erre ene a

0 1
  C       -5.863      94.851     102.419
  O       -6.443      95.056     103.691
  H       -5.142      94.034     102.491
  H       -5.342      95.751     102.084
  H       -6.632      94.574     101.692
  P       -7.457      96.281     103.880
  C       -9.193      95.109     105.396
  O       -8.161      96.079     105.305
  C      -10.361      95.633     106.241
  O       -9.846      96.100     107.519
  C      -11.114      96.808     105.596
  O      -12.475      96.740     106.041
  C      -10.405      97.994     106.219
  O      -11.129      99.185     106.034
  C      -10.225      97.487     107.653
  N       -9.239      98.254     108.399
  C       -9.552      98.527     109.733
  O      -10.614      98.136     110.215
  N       -8.666      99.261     110.479
  C       -7.597      99.739     109.924
  N       -6.769     100.472     110.715
  C       -7.260      99.524     108.501
  C       -8.115      98.775     107.805
  O       -8.396      96.527     102.747
  O       -6.499      97.541     104.124
  H      -10.756      99.911     106.583
  H       -6.469      98.092     103.321
  H       -6.366      99.960     108.081
  H       -7.953      98.562     106.753
  H      -11.176      97.516     108.200
  H       -9.428      98.148     105.750
  H      -11.072      96.795     104.504
  H      -11.040      94.799     106.457
  H       -7.044     100.603     111.681
  H       -8.765      94.217     105.864
  H       -5.921     100.910     110.388
  H       -9.551      94.845     104.397
  P      -13.566      95.780     105.365
  C      -14.379      94.683     107.553
  O      -14.730      95.474     106.421
  O      -12.987      94.558     104.726
  O      -14.293      96.689     104.264
  H      -14.581      96.124     103.523
  H      -15.238      94.552     108.177
  H      -13.608      95.176     108.107
  H      -14.027      93.727     107.225

 6  7  8  9  10  11  12  13  14  15  16  26  30  31  32  33  35 0
 6-311+G(2d,p)
 ****
 37  38 0
 6-311+G(2d,p)
 ****
 1  2  3  4  5  17  18  19  20  21  22  23  24  25 0
 3-21G
 ****
 27  28  29  34  36  39  40  41  42  43  44  45  46 0
 3-21G
 ****


