%nproc=1
%NoSave
%Mem=1900MB
#P OB98/GEN NMR

erre ene a

0 1
  C      185.127    -167.922     -65.255
  O      184.409    -167.614     -64.077
  H      186.181    -168.056     -64.999
  H      185.040    -167.094     -65.964
  H      184.755    -168.844     -65.708
  P      182.808    -167.702     -64.160
  C      182.213    -165.175     -64.110
  O      182.242    -166.405     -63.401
  C      181.856    -164.030     -63.168
  O      180.433    -164.006     -62.921
  C      182.527    -164.108     -61.801
  O      183.843    -163.574     -61.834
  C      181.601    -163.225     -60.982
  O      181.876    -161.836     -61.266
  C      180.221    -163.608     -61.538
  N      177.429    -164.864     -57.495
  C      177.971    -163.645     -57.852
  N      177.744    -162.616     -57.009
  N      178.678    -163.450     -58.936
  C      178.844    -164.575     -59.673
  C      178.363    -165.839     -59.420
  C      177.571    -166.035     -58.229
  O      177.058    -167.093     -57.872
  N      178.738    -166.726     -60.395
  C      179.464    -166.004     -61.225
  N      179.562    -164.692     -60.830
  O      182.469    -168.908     -63.161
  O      182.256    -167.953     -65.522
  H      182.800    -161.669     -61.005
  H      182.276    -169.707     -63.686
  H      176.902    -164.961     -56.645
  H      179.932    -166.377     -62.124
  H      179.526    -162.761     -61.542
  H      181.731    -163.359     -59.906
  H      177.228    -162.701     -56.147
  H      182.513    -165.128     -61.400
  H      178.129    -161.712     -57.253
  H      182.114    -163.089     -63.672
  H      181.465    -165.240     -64.906
  H      183.198    -164.999     -64.555
  P      185.062    -164.534     -61.423
  C      186.238    -162.869     -59.821
  O      186.301    -163.582     -61.048
  O      185.493    -165.171     -62.827
  O      184.732    -165.588     -60.424
  H      185.274    -166.125     -62.839
  H      187.124    -162.281     -59.704
  H      186.161    -163.562     -59.009
  H      185.382    -162.227     -59.825

 6  7  8  9  10  11  12  13  14  15  26  29  33  34 0
 6-311+G(2d,p)
 ****
 36  38  39  40  41 0
 6-311+G(2d,p)
 ****
 1  2  3  4  5  16  17  18  19  20  21  22  23  24  25 0
 3-21G
 ****
 27  28  30  31  32  35  37  42  43  44  45  46  47 0
 3-21G
 ****
 48  49 0
 3-21G
 ****


