%nproc=1
%NoSave
%Mem=1900MB
#P OB98/GEN NMR

erre ene a

0 1
  C      380.910     131.387     162.509
  O      380.411     132.201     163.553
  H      381.378     130.503     162.950
  H      381.661     131.928     161.928
  H      380.096     131.062     161.857
  P      379.710     133.588     163.170
  C      377.478     133.307     164.439
  O      378.130     133.306     163.176
  C      376.246     134.207     164.399
  O      376.619     135.556     164.060
  C      375.193     133.784     163.376
  O      374.385     132.740     163.893
  C      374.427     135.086     163.211
  O      373.557     135.282     164.344
  C      375.564     136.125     163.239
  N      374.658     138.224     158.708
  C      373.788     137.944     159.744
  N      372.487     138.239     159.530
  N      374.159     137.414     160.880
  C      375.474     137.108     160.925
  C      376.430     137.321     159.959
  C      376.021     137.970     158.731
  O      376.765     138.255     157.798
  N      377.643     136.794     160.327
  C      377.431     136.312     161.536
  N      376.127     136.469     161.944
  O      380.203     134.252     161.920
  O      379.920     134.508     164.462
  H      374.125     135.488     165.109
  H      380.734     135.039     164.387
  H      374.314     138.625     157.852
  H      378.182     135.844     162.160
  H      375.252     137.066     163.708
  H      373.803     135.102     162.318
  H      372.121     138.507     158.630
  H      375.649     133.518     162.417
  H      371.828     137.986     160.257
  H      375.820     134.237     165.412
  H      378.195     133.674     165.181
  H      377.180     132.289     164.715
  P      373.260     132.025     162.993
  C      374.608     130.030     162.044
  O      374.064     131.315     161.799
  O      372.150     132.915     162.555
  O      372.793     130.774     163.869
  H      372.090     131.004     164.524
  H      375.112     129.683     161.166
  H      373.820     129.351     162.295
  H      375.303     130.086     162.856

 6  7  8  9  10  11  12  13  14  15  26  29  33  34 0
 6-311+G(2d,p)
 ****
 36  38  39  40  41 0
 6-311+G(2d,p)
 ****
 1  2  3  4  5  16  17  18  19  20  21  22  23  24  25 0
 3-21G
 ****
 27  28  30  31  32  35  37  42  43  44  45  46  47 0
 3-21G
 ****
 48  49 0
 3-21G
 ****


