%nproc=1
%NoSave
%Mem=1900MB
#P OB98/GEN NMR

erre ene a

0 1
  C      194.620      89.877      70.202
  O      193.771      90.497      71.155
  P      194.338      91.595      72.180
  C      195.890      91.528      74.229
  O      195.256      90.771      73.205
  C      196.747      90.615      75.102
  O      195.870      89.704      75.807
  C      197.744      89.723      74.361
  O      198.978      90.347      74.049
  C      197.977      88.637      75.405
  O      198.895      89.115      76.408
  C      196.581      88.456      76.006
  N      195.705      83.413      76.049
  C      196.480      84.204      76.826
  N      196.676      85.538      76.739
  C      195.932      86.059      75.749
  C      195.093      85.382      74.879
  C      194.991      83.991      75.058
  N      194.182      83.191      74.278
  N      194.513      86.257      73.979
  C      194.986      87.439      74.314
  N      195.840      87.374      75.381
  O      193.298      92.464      72.793
  O      195.408      92.418      71.322
  H      199.726      89.337      75.946
  H      195.614      93.263      71.767
  H      197.022      83.699      77.623
  H      194.744      88.366      73.813
  H      196.609      88.265      77.085
  H      198.414      87.727      74.981
  H      197.288      89.273      73.470
  H      197.261      91.234      75.850
  H      195.113      91.991      74.846
  H      194.071      82.230      74.561
  H      193.530      83.640      73.650
  H      196.493      92.323      73.779
  P      199.753      89.827      72.738
  C      200.456      87.380      72.131
  O      200.323      88.376      73.121
  O      200.750      90.785      72.186
  O      198.552      89.498      71.726
  H      197.987      88.753      71.984
  H      201.007      86.535      72.557
  H      201.015      87.759      71.271
  H      199.471      87.033      71.809
  H      194.054      89.181      69.619
  H      195.407      89.359      70.709
  H      195.039      90.623      69.559

 3  4  5  6  7  8  9  10  11  12  22  25  29  30  31  32 0
 6-311+G(2d,p)
 ****
 33  36  37 0
 6-311+G(2d,p)
 ****
 1  2  13  14  15  16  17  18  19  20  21  23  24  26 0
 3-21G
 ****
 27  28  34  35  38  39  40  41  42  43  44  45  46  47  48 0
 3-21G
 ****


