%nproc=1
%NoSave
%Mem=1900MB
#P OB98/GEN NMR

erre ene a

0 1
  C     -497.182     501.156     -52.036
  O     -497.598     501.010     -50.679
  P     -497.001     502.014     -49.584
  C     -495.938     500.102     -48.084
  O     -496.772     501.241     -48.204
  C     -496.294     499.356     -46.783
  O     -497.565     498.685     -46.917
  C     -495.256     498.298     -46.402
  O     -494.192     498.844     -45.646
  C     -496.101     497.296     -45.631
  O     -496.350     497.779     -44.296
  C     -497.408     497.306     -46.461
  N     -497.494     496.408     -47.632
  C     -498.324     495.286     -47.579
  O     -499.010     494.974     -46.612
  N     -498.360     494.511     -48.713
  C     -497.801     494.824     -49.915
  O     -497.916     494.119     -50.916
  C     -497.059     496.091     -49.963
  C     -496.936     496.800     -48.831
  O     -498.216     503.002     -49.268
  O     -495.777     502.756     -50.026
  H     -495.486     497.836     -43.845
  H     -497.994     503.912     -49.548
  H     -498.896     493.656     -48.671
  H     -496.640     496.398     -50.914
  H     -496.387     497.737     -48.855
  H     -498.268     497.077     -45.821
  H     -495.582     496.349     -45.518
  H     -494.883     497.796     -47.302
  H     -496.383     500.094     -45.973
  H     -494.886     500.391     -48.081
  H     -496.092     499.446     -48.950
  P     -492.698     498.317     -45.885
  C     -492.541     497.091     -43.633
  O     -492.056     498.163     -44.417
  O     -491.879     499.085     -46.872
  O     -492.901     496.792     -46.329
  H     -492.890     496.711     -47.314
  H     -491.920     497.007     -42.735
  H     -492.481     496.155     -44.192
  H     -493.574     497.286     -43.335
  H     -497.666     500.416     -52.639
  H     -496.121     501.030     -52.099
  H     -497.447     502.131     -52.387

 3  4  5  6  7  8  9  10  11  12  13  23  28  29  30  31  32 0
 6-311+G(2d,p)
 ****
 33  34 0
 6-311+G(2d,p)
 ****
 1  2  14  15  16  17  18  19  20  21  22  24  25  26  27 0
 3-21G
 ****
 35  36  37  38  39  40  41  42  43  44  45 0
 3-21G
 ****


