%nproc=1
%NoSave
%Mem=1900MB
#P OB98/GEN NMR

erre ene a

0 1
  C     -205.972    -201.805    -100.011
  O     -205.237    -202.090     -98.836
  H     -205.386    -202.062    -100.897
  H     -206.886    -202.403    -100.004
  H     -206.241    -200.746    -100.036
  P     -203.801    -201.386     -98.709
  C     -201.740    -202.851     -99.280
  O     -202.844    -202.109     -99.778
  C     -202.115    -204.320     -99.136
  O     -202.684    -204.814    -100.365
  C     -200.946    -205.251     -98.832
  O     -200.573    -205.205     -97.465
  C     -201.555    -206.595     -99.204
  O     -202.380    -207.069     -98.123
  C     -202.428    -206.242    -100.416
  N     -202.290    -209.567    -104.326
  C     -203.026    -209.540    -103.192
  N     -203.003    -208.633    -102.195
  C     -202.112    -207.662    -102.453
  C     -201.292    -207.556    -103.565
  C     -201.398    -208.572    -104.531
  N     -200.630    -208.599    -105.676
  N     -200.520    -206.418    -103.494
  C     -200.863    -205.842    -102.360
  N     -201.820    -206.561    -101.692
  O     -203.248    -201.918     -97.301
  O     -203.811    -199.895     -98.763
  H     -202.857    -207.850     -98.456
  H     -202.734    -201.207     -96.875
  H     -203.735    -210.356    -103.071
  H     -200.456    -204.909    -101.989
  H     -203.404    -206.740    -100.369
  H     -200.806    -207.365     -99.404
  H     -200.094    -205.047     -99.490
  H     -202.884    -204.395     -98.355
  H     -201.447    -202.456     -98.302
  H     -200.886    -209.234    -106.413
  H     -199.970    -207.844    -105.823
  H     -200.898    -202.739     -99.975
  P     -199.048    -205.561     -97.099
  C     -198.866    -207.801     -95.802
  O     -198.976    -207.163     -97.071
  O     -198.941    -205.160     -95.555
  O     -198.022    -204.869     -97.928
  H     -198.014    -204.952     -95.330
  H     -198.828    -208.862     -95.938
  H     -199.715    -207.548     -95.201
  H     -197.973    -207.472     -95.314

 6  7  8  9  10  11  12  13  14  15  25  28  32  33  34  35 0
 6-311+G(2d,p)
 ****
 36  39  40 0
 6-311+G(2d,p)
 ****
 1  2  3  4  5  16  17  18  19  20  21  22  23  24 0
 3-21G
 ****
 26  27  29  30  31  37  38  41  42  43  44  45  46  47  48 0
 3-21G
 ****


