%nproc=1
%NoSave
%Mem=1900MB
#P OB98/GEN NMR

erre ene a

0 1
  C      -80.411     898.743    1255.146
  O      -81.345     898.629    1254.076
  P      -82.396     897.416    1254.054
  C      -80.829     895.421    1253.641
  O      -81.814     896.285    1253.081
  C      -80.422     894.359    1252.624
  O      -81.443     893.346    1252.505
  C      -80.183     894.916    1251.210
  O      -78.948     895.592    1251.096
  C      -80.288     893.635    1250.367
  O      -79.018     892.918    1250.382
  C      -81.370     892.848    1251.117
  N      -84.191     891.341    1247.127
  C      -82.848     891.205    1247.399
  N      -82.182     891.659    1248.475
  C      -83.003     892.357    1249.293
  C      -84.362     892.591    1249.151
  C      -84.955     892.022    1247.995
  N      -86.320     892.105    1247.734
  N      -84.851     893.357    1250.160
  C      -83.796     893.586    1250.969
  N      -82.680     892.936    1250.488
  O      -83.818     897.802    1253.820
  O      -82.239     896.744    1255.523
  H      -79.178     892.076    1249.943
  H      -83.085     896.796    1255.998
  H      -82.282     890.649    1246.664
  H      -83.828     894.173    1251.861
  H      -81.111     891.778    1251.208
  H      -80.528     893.840    1249.313
  H      -81.007     895.596    1250.943
  H      -79.498     893.845    1252.993
  H      -81.244     894.936    1254.525
  H      -86.663     891.527    1246.967
  H      -86.962     892.331    1248.495
  H      -79.961     896.019    1253.964
  P      -78.914     897.191    1251.054
  C      -78.673     897.318    1248.490
  O      -78.075     897.590    1249.763
  O      -78.462     897.874    1252.313
  O      -80.420     897.612    1250.644
  H      -80.622     898.471    1251.060
  H      -78.581     896.242    1248.269
  H      -78.198     897.888    1247.722
  H      -79.740     897.576    1248.507
  H      -79.796     899.605    1254.992
  H      -79.796     897.868    1255.178
  H      -80.939     898.842    1256.071

 3  4  5  6  7  8  9  10  11  12  22  25  29  30  31  32 0
 6-311+G(2d,p)
 ****
 33  36  37 0
 6-311+G(2d,p)
 ****
 1  2  13  14  15  16  17  18  19  20  21  23  24  26 0
 3-21G
 ****
 27  28  34  35  38  39  40  41  42  43  44  45  46  47  48 0
 3-21G
 ****


