%nproc=1
%NoSave
%Mem=1900MB
#P OB98/GEN NMR

erre ene a

0 1
  C      579.860     294.228     492.755
  O      580.402     294.416     494.069
  P      581.845     293.873     494.505
  C      583.145     295.991     495.195
  O      582.953     294.989     494.200
  C      584.625     296.151     495.561
  O      585.080     295.029     496.338
  C      585.569     296.223     494.368
  O      585.513     297.499     493.747
  C      586.907     295.903     495.032
  O      587.470     297.064     495.657
  C      586.489     294.858     496.090
  N      586.797     293.493     495.681
  C      587.997     292.954     496.165
  O      588.761     293.642     496.837
  N      588.310     291.655     495.832
  C      587.535     290.984     495.042
  N      587.891     289.703     494.764
  C      586.307     291.543     494.443
  C      586.005     292.788     494.805
  O      582.174     292.521     493.953
  O      581.803     293.818     496.105
  H      588.367     296.812     495.949
  H      582.375     293.091     496.416
  H      585.706     290.960     493.765
  H      585.115     293.275     494.422
  H      586.990     295.063     497.047
  H      587.652     295.527     494.324
  H      585.324     295.439     493.644
  H      584.720     297.052     496.181
  H      588.735     289.347     495.192
  H      582.583     295.701     496.090
  H      587.360     289.092     494.161
  H      582.740     296.937     494.826
  P      584.803     297.654     492.317
  C      583.696     299.844     493.088
  O      583.494     298.561     492.529
  O      584.584     296.386     491.565
  O      585.782     298.636     491.514
  H      585.741     298.413     490.562
  H      582.855     300.481     492.812
  H      584.626     300.291     492.723
  H      583.737     299.758     494.179
  H      578.889     294.675     492.702
  H      579.782     293.181     492.548
  H      580.504     294.687     492.034

 3  4  5  6  7  8  9  10  11  12  13  23  27  28  29  30  32 0
 6-311+G(2d,p)
 ****
 34  35 0
 6-311+G(2d,p)
 ****
 1  2  14  15  16  17  18  19  20  21  22  24  25  26 0
 3-21G
 ****
 31  33  36  37  38  39  40  41  42  43  44  45  46 0
 3-21G
 ****


