%nproc=1
%NoSave
%Mem=1900MB
#P OB98/GEN NMR

erre ene a

0 1
  C       20.081     347.922     127.179
  O       19.274     347.872     126.004
  P       19.777     346.915     124.810
  C       20.880     348.785     123.371
  O       21.061     347.619     124.165
  C       22.206     349.215     122.744
  O       23.111     349.687     123.765
  C       22.958     348.097     122.029
  O       22.373     347.805     120.769
  C       24.353     348.696     121.955
  O       24.429     349.655     120.887
  C       24.465     349.411     123.317
  N       28.646     349.073     126.254
  C       28.277     349.983     125.317
  N       27.158     349.990     124.565
  C       26.378     348.932     124.860
  C       26.641     347.918     125.768
  C       27.835     348.014     126.497
  N       28.216     347.097     127.451
  N       25.617     346.994     125.772
  C       24.747     347.442     124.886
  N       25.155     348.610     124.317
  O       18.648     347.113     123.694
  O       19.953     345.480     125.190
  H       25.295     350.116     120.963
  H       18.501     346.287     123.200
  H       28.965     350.804     125.157
  H       23.815     346.957     124.640
  H       24.990     350.376     123.240
  H       25.141     347.946     121.778
  H       22.974     347.186     122.642
  H       22.009     350.045     122.047
  H       20.508     349.604     123.998
  H       29.154     347.157     127.811
  H       27.684     346.233     127.516
  H       20.134     348.578     122.595
  P       22.326     346.263     120.314
  C       24.485     346.698     118.986
  O       23.870     345.917     119.996
  O       21.687     346.385     118.847
  O       21.632     345.350     121.263
  H       22.122     347.066     118.309
  H       25.526     346.392     118.905
  H       24.449     347.760     119.239
  H       23.996     346.531     118.025
  H       19.638     348.589     127.888
  H       21.060     348.271     126.925
  H       20.151     346.943     127.606

 3  4  5  6  7  8  9  10  11  12  22  25  29  30  31  32 0
 6-311+G(2d,p)
 ****
 33  36  37 0
 6-311+G(2d,p)
 ****
 1  2  13  14  15  16  17  18  19  20  21  23  24  26 0
 3-21G
 ****
 27  28  34  35  38  39  40  41  42  43  44  45  46  47  48 0
 3-21G
 ****


