%nproc=1
%NoSave
%Mem=1900MB
#P OB98/GEN NMR

erre ene a

0 1
  C      306.232     118.284    -363.964
  O      305.963     118.565    -362.606
  H      305.495     117.561    -364.325
  H      307.230     117.849    -364.061
  H      306.160     119.193    -364.570
  P      306.802     119.759    -361.938
  C      307.398     117.972    -360.151
  O      307.073     119.330    -360.414
  C      307.729     117.785    -358.672
  O      308.918     118.532    -358.326
  C      306.635     118.260    -357.721
  O      305.617     117.280    -357.557
  C      307.438     118.439    -356.443
  O      307.687     117.153    -355.841
  C      308.745     119.043    -356.970
  N      310.682     123.232    -354.877
  C      310.894     121.902    -354.561
  N      311.732     121.653    -353.534
  N      310.327     120.906    -355.191
  C      309.501     121.306    -356.188
  C      309.214     122.588    -356.596
  C      309.850     123.682    -355.895
  O      309.720     124.875    -356.148
  N      308.339     122.594    -357.651
  C      308.083     121.320    -357.870
  N      308.758     120.495    -357.006
  O      305.724     120.938    -361.798
  O      307.999     120.207    -362.703
  H      308.295     117.306    -355.095
  H      306.171     121.794    -361.953
  H      311.135     123.961    -354.350
  H      307.418     120.945    -358.636
  H      309.617     118.726    -356.387
  H      306.914     119.046    -355.699
  H      312.163     122.378    -352.977
  H      306.222     119.229    -358.032
  H      311.932     120.687    -353.306
  H      307.950     116.721    -358.509
  H      308.268     117.685    -360.753
  H      306.546     117.342    -360.430
  P      304.389     117.303    -358.595
  C      303.005     117.665    -356.429
  O      303.073     117.053    -357.712
  O      304.569     115.924    -359.389
  O      304.359     118.478    -359.511
  H      304.134     115.979    -360.259
  H      302.077     117.410    -355.961
  H      303.071     118.728    -356.537
  H      303.816     117.317    -355.824

 6  7  8  9  10  11  12  13  14  15  26  29  33  34 0
 6-311+G(2d,p)
 ****
 36  38  39  40  41 0
 6-311+G(2d,p)
 ****
 1  2  3  4  5  16  17  18  19  20  21  22  23  24  25 0
 3-21G
 ****
 27  28  30  31  32  35  37  42  43  44  45  46  47 0
 3-21G
 ****
 48  49 0
 3-21G
 ****


