%nproc=1
%NoSave
%Mem=1900MB
#P OB98/GEN NMR

erre ene a

0 1
  C     -123.602    -220.988      -9.208
  O     -123.860    -219.836      -8.433
  P     -122.786    -218.653      -8.316
  C     -121.573    -217.132     -10.006
  O     -122.245    -218.372      -9.805
  C     -120.370    -217.327     -10.940
  O     -119.317    -218.028     -10.209
  C     -120.715    -218.162     -12.193
  O     -120.351    -217.549     -13.432
  C     -120.042    -219.493     -11.899
  O     -119.798    -220.279     -13.054
  C     -118.818    -219.055     -11.087
  N     -118.200    -220.160     -10.361
  C     -117.296    -220.953     -11.065
  O     -116.981    -220.777     -12.239
  N     -116.789    -222.025     -10.386
  C     -117.171    -222.443      -9.146
  O     -116.746    -223.472      -8.635
  C     -118.158    -221.585      -8.470
  C     -118.604    -220.491      -9.085
  O     -121.712    -218.865      -7.303
  O     -123.695    -217.364      -8.043
  H     -120.598    -220.253     -13.608
  H     -124.348    -217.167      -8.739
  H     -116.133    -222.609     -10.882
  H     -118.489    -221.899      -7.488
  H     -119.331    -219.839      -8.610
  H     -118.060    -218.594     -11.727
  H     -120.714    -220.075     -11.256
  H     -121.797    -218.312     -12.278
  H     -119.999    -216.337     -11.218
  H     -121.217    -216.765      -9.040
  H     -122.270    -216.390     -10.408
  P     -120.958    -217.934     -14.858
  C     -123.274    -217.610     -16.000
  O     -122.544    -217.742     -14.795
  O     -120.500    -219.242     -15.414
  O     -120.489    -216.728     -15.804
  H     -120.389    -217.049     -16.718
  H     -124.169    -217.010     -15.802
  H     -123.584    -218.601     -16.344
  H     -122.683    -217.118     -16.775
  H     -124.441    -221.650      -9.153
  H     -122.731    -221.483      -8.832
  H     -123.438    -220.703     -10.226

 3  4  5  6  7  8  9  10  11  12  13  23  28  29  30  31  32 0
 6-311+G(2d,p)
 ****
 33  34 0
 6-311+G(2d,p)
 ****
 1  2  14  15  16  17  18  19  20  21  22  24  25  26  27 0
 3-21G
 ****
 35  36  37  38  39  40  41  42  43  44  45 0
 3-21G
 ****


