%nproc=1
%NoSave
%Mem=1900MB
#P OB98/GEN NMR

erre ene a

0 1
  C       11.953      13.298      -1.482
  O       11.183      12.951      -0.339
  P       10.853      14.099       0.730
  C        9.700      16.419       0.622
  O       10.343      15.378      -0.098
  C       10.110      17.792       0.091
  O       11.348      18.197       0.733
  C       10.345      17.845      -1.422
  O        9.956      19.149      -1.868
  C       11.852      17.709      -1.539
  O       12.343      18.198      -2.784
  C       12.293      18.506      -0.314
  N       16.992      20.312       0.570
  C       15.854      20.923       0.180
  N       14.640      20.375      -0.033
  C       14.672      19.051       0.195
  C       15.765      18.286       0.561
  C       16.976      18.971       0.757
  N       18.135      18.353       1.164
  N       15.411      16.957       0.673
  C       14.128      16.921       0.378
  N       13.634      18.165       0.106
  O       12.306      14.536       1.236
  O        9.985      13.681       1.866
  H       13.291      18.404      -2.679
  H       12.430      14.265       2.166
  H       15.925      21.997       0.027
  H       13.520      16.029       0.345
  H       12.259      19.589      -0.491
  H       12.137      16.655      -1.452
  H        9.808      17.075      -1.985
  H        9.342      18.519       0.385
  H        9.992      16.350       1.674
  H       18.921      18.929       1.415
  H       18.087      17.393       1.488
  H        8.615      16.295       0.554
  P        9.327      19.257      -3.338
  C        7.486      17.953      -4.615
  O        8.405      17.966      -3.540
  O       10.580      18.985      -4.297
  O        8.684      20.573      -3.631
  H       10.448      19.433      -5.152
  H        7.388      16.928      -4.984
  H        7.812      18.595      -5.439
  H        6.511      18.297      -4.259
  H       12.089      12.433      -2.097
  H       12.908      13.667      -1.170
  H       11.443      14.055      -2.039

 3  4  5  6  7  8  9  10  11  12  22  25  29  30  31  32 0
 6-311+G(2d,p)
 ****
 33  36  37 0
 6-311+G(2d,p)
 ****
 1  2  13  14  15  16  17  18  19  20  21  23  24  26 0
 3-21G
 ****
 27  28  34  35  38  39  40  41  42  43  44  45  46  47  48 0
 3-21G
 ****


