%nproc=1
%NoSave
%Mem=1900MB
#P OB98/GEN NMR

erre ene a

0 1
  C      238.715     398.130      67.814
  O      239.983     398.540      68.291
  P      240.128     400.005      68.922
  C      242.165     401.042      67.623
  O      241.676     400.408      68.794
  C      243.523     400.450      67.228
  O      244.522     400.882      68.196
  C      243.560     398.919      67.181
  O      244.445     398.547      66.114
  C      244.167     398.553      68.525
  O      244.748     397.257      68.529
  C      245.169     399.699      68.707
  N      245.581     399.897      70.094
  C      246.931     399.754      70.402
  O      247.792     399.448      69.577
  N      247.264     399.948      71.719
  C      246.398     400.193      72.743
  O      246.749     400.339      73.907
  C      244.978     400.288      72.364
  C      244.643     400.147      71.084
  O      239.935     399.693      70.478
  O      239.172     401.000      68.355
  H      240.318     398.840      70.746
  H      244.033     396.607      68.408
  H      248.243     399.884      71.957
  H      244.257     400.467      73.152
  H      243.604     400.206      70.781
  H      246.056     399.524      68.082
  H      243.387     398.580      69.293
  H      242.572     398.479      67.014
  H      243.807     400.873      66.257
  H      242.284     402.113      67.816
  H      241.435     400.922      66.816
  P      243.970     397.379      65.107
  C      246.310     396.223      65.318
  O      245.292     396.729      64.478
  O      243.401     398.264      63.899
  O      242.954     396.440      65.671
  H      244.009     398.969      63.625
  H      246.935     395.539      64.735
  H      245.898     395.677      66.167
  H      246.933     397.047      65.674
  H      238.784     397.135      67.427
  H      238.394     398.793      67.038
  H      238.008     398.152      68.617

 3  4  5  6  7  8  9  10  11  12  13  24  28  29  30  31  32 0
 6-311+G(2d,p)
 ****
 33  34 0
 6-311+G(2d,p)
 ****
 1  2  14  15  16  17  18  19  20  21  22  23  25  26  27 0
 3-21G
 ****
 35  36  37  38  39  40  41  42  43  44  45 0
 3-21G
 ****


