%nproc=1
%NoSave
%Mem=1900MB
#P OB98/GEN NMR

erre ene a

0 1
  C      109.896     -53.893     -24.317
  O      110.215     -52.642     -23.712
  P      111.639     -52.268     -23.097
  C      111.247     -52.843     -20.569
  O      111.875     -53.173     -21.799
  C      111.691     -53.744     -19.404
  O      111.099     -55.060     -19.558
  C      113.206     -53.945     -19.428
  O      114.061     -52.977     -18.851
  C      113.417     -55.355     -18.894
  O      113.673     -55.377     -17.489
  C      112.088     -56.050     -19.204
  N      112.403     -61.003     -20.441
  C      112.369     -60.416     -19.193
  N      112.481     -61.246     -18.133
  N      112.251     -59.130     -19.000
  C      112.237     -58.409     -20.143
  C      112.285     -58.874     -21.437
  C      112.356     -60.305     -21.641
  O      112.378     -60.877     -22.725
  N      112.270     -57.843     -22.342
  C      112.239     -56.758     -21.598
  N      112.209     -57.049     -20.253
  O      111.921     -50.809     -22.965
  O      112.678     -52.870     -24.175
  H      114.518     -54.920     -17.331
  H      113.456     -52.276     -24.172
  H      112.470     -62.002     -20.532
  H      112.228     -55.743     -21.978
  H      111.700     -56.573     -18.322
  H      114.284     -55.824     -19.375
  H      112.693     -62.227     -18.216
  H      113.507     -53.986     -20.483
  H      112.674     -60.806     -17.232
  H      111.320     -53.359     -18.451
  H      110.169     -52.930     -20.731
  H      111.440     -51.799     -20.320
  P      114.810     -51.792     -19.625
  C      117.201     -52.657     -19.930
  O      115.944     -52.443     -20.546
  O      115.662     -51.063     -18.483
  O      113.910     -50.823     -20.318
  H      115.950     -50.182     -18.784
  H      117.957     -52.803     -20.706
  H      117.155     -53.553     -19.305
  H      117.486     -51.798     -19.315
  H      108.878     -53.881     -24.645
  H      110.032     -54.679     -23.604
  H      110.539     -54.058     -25.156

 3  4  5  6  7  8  9  10  11  12  23  26  30  31 0
 6-311+G(2d,p)
 ****
 33  35  36  37  38 0
 6-311+G(2d,p)
 ****
 1  2  13  14  15  16  17  18  19  20  21  22  24  25 0
 3-21G
 ****
 27  28  29  32  34  39  40  41  42  43  44  45  46  47  48  49 0
 3-21G
 ****


