%nproc=1
%NoSave
%Mem=1900MB
#P OB98/GEN NMR

erre ene a

0 1
  C     -306.559     248.574     155.597
  O     -305.722     247.907     154.678
  H     -307.089     247.828     156.198
  H     -307.300     249.177     155.062
  H     -305.973     249.210     156.266
  P     -304.729     248.807     153.796
  C     -302.520     247.457     154.018
  O     -303.621     247.811     153.192
  C     -301.401     246.842     153.177
  O     -301.907     245.646     152.526
  C     -300.864     247.778     152.092
  O     -299.447     247.594     151.989
  C     -301.530     247.277     150.823
  O     -300.785     247.595     149.645
  C     -301.657     245.775     151.113
  N     -302.724     245.163     150.318
  C     -302.398     244.791     149.013
  O     -301.256     244.984     148.578
  N     -303.370     244.257     148.212
  C     -304.593     244.187     148.642
  N     -305.521     243.676     147.791
  C     -305.000     244.633     149.991
  C     -304.019     245.101     150.773
  O     -303.912     249.641     154.892
  O     -305.386     249.687     152.788
  H     -301.183     247.113     148.891
  H     -303.661     250.520     154.554
  H     -306.031     244.579     150.301
  H     -304.225     245.458     151.770
  H     -300.716     245.257     150.892
  H     -302.525     247.729     150.726
  H     -301.081     248.834     152.281
  H     -300.595     246.523     153.850
  H     -305.207     243.396     146.868
  H     -302.854     246.722     154.760
  H     -306.507     243.617     148.002
  H     -302.160     248.347     154.545
  P     -298.527     248.570     152.873
  C     -296.338     247.662     151.809
  O     -297.148     248.796     152.096
  O     -298.120     247.657     154.125
  O     -299.225     249.819     153.304
  H     -298.587     247.958     154.927
  H     -295.457     247.976     151.290
  H     -296.887     246.977     151.198
  H     -296.061     247.181     152.724

 6  7  8  9  10  11  12  13  14  15  16  26  30  31  32  33  35 0
 6-311+G(2d,p)
 ****
 37  38 0
 6-311+G(2d,p)
 ****
 1  2  3  4  5  17  18  19  20  21  22  23  24  25 0
 3-21G
 ****
 27  28  29  34  36  39  40  41  42  43  44  45  46 0
 3-21G
 ****


