%nproc=1
%NoSave
%Mem=1900MB
#P OB98/GEN NMR

erre ene a

0 1
  C      175.040     279.817      76.107
  O      174.528     280.787      75.216
  H      176.127     279.788      76.002
  H      174.639     278.830      75.866
  H      174.797     280.079      77.141
  P      172.941     281.026      75.171
  C      172.636     280.965      72.598
  O      172.695     281.770      73.768
  C      172.280     281.822      71.387
  O      170.945     282.362      71.501
  C      173.169     283.042      71.177
  O      174.463     282.730      70.686
  C      172.334     283.804      70.164
  O      172.463     283.189      68.872
  C      170.914     283.606      70.745
  N      170.493     284.717      71.598
  C      170.223     285.931      70.956
  O      170.346     286.041      69.738
  N      169.846     287.011      71.719
  C      169.771     286.897      73.007
  N      169.401     287.999      73.713
  C      170.068     285.642      73.726
  C      170.416     284.604      72.971
  O      172.347     281.697      76.368
  O      172.327     279.577      74.880
  H      173.408     282.991      68.743
  H      171.343     279.668      74.854
  H      170.018     285.606      74.804
  H      170.654     283.648      73.423
  H      170.179     283.478      69.939
  H      172.634     284.848      70.058
  H      173.235     283.640      72.097
  H      172.286     281.163      70.507
  H      169.204     288.848      73.195
  H      171.888     280.181      72.759
  H      169.389     288.023      74.725
  H      173.608     280.498      72.416
  P      175.653     282.649      71.766
  C      177.115     284.618      70.868
  O      176.960     283.217      71.036
  O      175.920     281.078      71.887
  O      175.356     283.287      73.087
  H      175.473     280.711      72.674
  H      178.038     284.817      70.365
  H      177.122     285.094      71.826
  H      176.302     285.000      70.286

 6  7  8  9  10  11  12  13  14  15  16  26  30  31  32  33  35 0
 6-311+G(2d,p)
 ****
 37  38 0
 6-311+G(2d,p)
 ****
 1  2  3  4  5  17  18  19  20  21  22  23  24  25 0
 3-21G
 ****
 27  28  29  34  36  39  40  41  42  43  44  45  46 0
 3-21G
 ****


