%nproc=1
%NoSave
%Mem=1900MB
#P OB98/GEN NMR

erre ene a

0 1
  C       29.939     388.464     240.922
  O       28.745     387.698     240.746
  P       28.874     386.131     240.425
  C       28.911     386.435     237.863
  O       28.230     385.864     238.975
  C       28.341     385.907     236.549
  O       28.384     384.463     236.486
  C       26.877     386.272     236.337
  O       26.747     387.643     235.986
  C       26.471     385.281     235.255
  O       26.860     385.755     233.952
  C       27.302     384.033     235.640
  N       26.508     382.990     236.269
  C       25.989     382.014     235.415
  O       26.178     382.080     234.199
  N       25.258     380.989     235.964
  C       25.048     380.947     237.244
  N       24.317     379.904     237.729
  C       25.568     381.968     238.179
  C       26.269     382.953     237.625
  O       28.411     385.210     241.506
  O       30.445     385.954     240.146
  H       26.641     385.028     233.330
  H       30.709     385.050     240.405
  H       25.377     381.888     239.238
  H       26.690     383.751     238.239
  H       27.768     383.598     234.739
  H       25.389     385.125     235.231
  H       26.312     386.070     237.256
  H       28.950     386.309     235.725
  H       23.967     379.230     237.070
  H       29.979     386.195     237.930
  H       24.146     379.761     238.716
  H       28.832     387.526     237.919
  P       26.771     388.717     237.175
  C       24.317     389.566     237.254
  O       25.654     389.823     236.856
  O       28.146     389.505     236.917
  O       26.735     388.129     238.548
  H       28.530     389.772     237.772
  H       23.765     390.508     237.263
  H       24.280     389.125     238.254
  H       23.850     388.884     236.536
  H       29.682     389.482     241.128
  H       30.527     388.418     240.029
  H       30.501     388.065     241.740

 3  4  5  6  7  8  9  10  11  12  13  23  27  28  29  30  32 0
 6-311+G(2d,p)
 ****
 34  35 0
 6-311+G(2d,p)
 ****
 1  2  14  15  16  17  18  19  20  21  22  24  25  26 0
 3-21G
 ****
 31  33  36  37  38  39  40  41  42  43  44  45  46 0
 3-21G
 ****


