%nproc=1
%NoSave
%Mem=1900MB
#P OB98/GEN NMR

erre ene a

0 1
  C     -200.693     -58.887     -91.711
  O     -199.837     -57.749     -91.785
  P     -200.334     -56.234     -91.762
  C     -201.416     -54.582     -93.490
  O     -200.821     -55.847     -93.237
  C     -201.283     -54.132     -94.956
  O     -199.878     -53.979     -95.290
  C     -201.838     -55.201     -95.897
  O     -203.227     -55.263     -96.164
  C     -200.971     -55.105     -97.144
  O     -201.542     -54.263     -98.146
  C     -199.665     -54.501     -96.619
  N     -195.835     -56.655     -99.238
  C     -196.789     -55.754     -99.671
  N     -196.754     -55.419    -100.977
  N     -197.706     -55.243     -98.893
  C     -197.683     -55.730     -97.631
  C     -196.801     -56.638     -97.090
  C     -195.752     -57.156     -97.945
  O     -194.874     -57.946     -97.610
  N     -197.101     -56.911     -95.780
  C     -198.174     -56.191     -95.536
  N     -198.565     -55.449     -96.628
  O     -199.430     -55.268     -91.074
  O     -201.706     -56.305     -90.916
  H     -202.374     -54.676     -98.444
  H     -201.780     -55.459     -90.432
  H     -195.137     -56.999     -99.873
  H     -198.703     -56.162     -94.589
  H     -199.347     -53.651     -97.236
  H     -200.846     -56.093     -97.606
  H     -196.153     -55.866    -101.650
  H     -201.598     -56.176     -95.449
  H     -197.577     -54.935    -101.344
  H     -201.735     -53.150     -95.103
  H     -200.928     -53.864     -92.823
  H     -202.469     -54.603     -93.204
  P     -204.199     -56.494     -95.843
  C     -204.386     -58.973     -96.464
  O     -203.683     -57.762     -96.671
  O     -205.562     -56.116     -96.596
  O     -204.445     -56.743     -94.391
  H     -206.297     -56.661     -96.261
  H     -203.774     -59.806     -96.821
  H     -205.324     -58.952     -97.028
  H     -204.603     -59.122     -95.402
  H     -200.104     -59.779     -91.747
  H     -201.373     -58.876     -92.537
  H     -201.244     -58.860     -90.794

 3  4  5  6  7  8  9  10  11  12  23  26  30  31 0
 6-311+G(2d,p)
 ****
 33  35  36  37  38 0
 6-311+G(2d,p)
 ****
 1  2  13  14  15  16  17  18  19  20  21  22  24  25 0
 3-21G
 ****
 27  28  29  32  34  39  40  41  42  43  44  45  46  47  48  49 0
 3-21G
 ****


