%nproc=1
%NoSave
%Mem=1900MB
#P OB98/GEN NMR

erre ene a

0 1
  C      462.195     -54.374    -497.515
  O      462.042     -55.023    -498.792
  P      463.272     -55.906    -499.328
  C      464.695     -54.017    -500.396
  O      463.841     -55.125    -500.622
  C      465.706     -53.880    -501.542
  O      466.591     -55.003    -501.546
  C      465.050     -53.876    -502.943
  O      464.534     -52.591    -503.288
  C      466.263     -54.241    -503.827
  O      467.028     -53.053    -504.070
  C      467.041     -55.212    -502.919
  N      468.464     -59.075    -505.880
  C      468.947     -57.791    -505.832
  N      469.957     -57.469    -506.669
  N      468.459     -56.872    -505.026
  C      467.473     -57.329    -504.222
  C      466.902     -58.575    -504.203
  C      467.419     -59.574    -505.128
  O      466.981     -60.699    -505.267
  N      465.937     -58.669    -503.220
  C      465.927     -57.471    -502.643
  N      466.825     -56.611    -503.258
  O      462.540     -57.182    -499.935
  O      464.292     -56.283    -498.299
  H      467.880     -53.347    -504.472
  H      463.162     -57.960    -499.940
  H      468.879     -59.745    -506.506
  H      465.305     -57.196    -501.813
  H      468.117     -55.003    -502.956
  H      465.964     -54.650    -504.785
  H      470.454     -58.171    -507.208
  H      464.302     -54.677    -503.045
  H      470.354     -56.543    -506.608
  H      466.278     -52.962    -501.404
  H      465.263     -54.173    -499.456
  H      464.116     -53.112    -500.303
  P      462.915     -52.484    -503.316
  C      462.679     -53.732    -505.590
  O      462.548     -52.514    -504.883
  O      462.660     -50.964    -502.868
  O      462.204     -53.472    -502.449
  H      461.784     -50.877    -502.490
  H      462.385     -54.592    -504.977
  H      463.694     -53.855    -505.952
  H      461.997     -53.696    -506.465
  H      461.306     -53.825    -497.285
  H      463.028     -53.704    -497.553
  H      462.364     -55.111    -496.758

 3  4  5  6  7  8  9  10  11  12  23  26  30  31  33  0
 6-311+G(2d,p)
 ****
 35  36  37  38 0
 6-311+G(2d,p)
 ****
 1  2  13  14  15  16  17  18  19  20  21  22  24  25  27  28  29 0
 3-21G
 ****
 32  34  39  40  41  42  43  44  45  46  47  48  49 0
 3-21G
 ****


