%nproc=1
%NoSave
%Mem=1900MB
#P OB98/GEN NMR

erre ene a

0 1
  C       45.549     -15.231      29.154
  O       46.703     -15.253      28.334
  P       46.523     -15.543      26.770
  C       47.969     -17.701      26.652
  O       47.822     -16.342      26.271
  C       48.496     -18.530      25.479
  O       48.809     -19.878      25.943
  C       47.503     -18.666      24.315
  O       48.265     -18.713      23.101
  C       46.877     -20.023      24.576
  O       46.258     -20.584      23.429
  C       48.103     -20.792      25.081
  N       47.751     -22.028      25.777
  C       47.440     -23.135      24.996
  O       47.442     -23.133      23.766
  N       47.056     -24.258      25.679
  C       46.870     -24.354      27.027
  O       46.412     -25.354      27.566
  C       47.215     -23.153      27.802
  C       47.634     -22.063      27.154
  O       46.690     -14.097      26.107
  O       45.227     -16.182      26.399
  H       46.953     -20.727      22.761
  H       45.817     -13.718      25.893
  H       46.837     -25.074      25.129
  H       47.100     -23.201      28.877
  H       47.875     -21.157      27.699
  H       48.773     -21.025      24.243
  H       46.115     -19.929      25.358
  H       46.765     -17.860      24.272
  H       49.434     -18.082      25.128
  H       47.000     -18.093      26.962
  H       48.648     -17.770      27.509
  P       47.726     -17.871      21.843
  C       45.813     -19.514      21.157
  O       47.054     -18.921      20.840
  O       49.108     -17.484      21.130
  O       46.899     -16.687      22.224
  H       49.733     -18.227      21.098
  H       45.166     -18.824      21.704
  H       45.984     -20.406      21.763
  H       45.314     -19.806      20.230
  H       45.834     -15.026      30.165
  H       45.060     -16.181      29.107
  H       44.881     -14.469      28.810

 3  4  5  6  7  8  9  10  11  12  13  23  28  29  30  31  32 0
 6-311+G(2d,p)
 ****
 33  34 0
 6-311+G(2d,p)
 ****
 1  2  14  15  16  17  18  19  20  21  22  24  25  26 0
 3-21G
 ****
 27  35  36  37  38  39  40  41  42  43  44  45 0
 3-21G
 ****


