%nproc=1
%NoSave
%Mem=1900MB
#P OB98/GEN NMR

erre ene a

0 1
  C       10.428     -84.663    -154.874
  O        9.939     -84.048    -153.700
  H       11.191     -84.036    -155.339
  H       10.876     -85.624    -154.609
  H        9.610     -84.838    -155.578
  P        9.273     -82.598    -153.866
  C        7.380     -81.709    -155.396
  O        7.886     -82.807    -154.651
  C        6.248     -82.175    -156.310
  O        6.831     -82.878    -157.436
  C        5.229     -83.111    -155.638
  O        3.912     -82.556    -155.728
  C        5.272     -84.381    -156.475
  O        3.985     -84.956    -156.693
  C        5.912     -83.924    -157.780
  N        5.236     -88.353    -160.206
  C        4.401     -87.311    -160.000
  N        4.675     -86.115    -159.439
  C        5.971     -86.038    -159.095
  C        6.947     -87.006    -159.263
  C        6.530     -88.221    -159.833
  N        7.367     -89.303    -159.991
  N        8.164     -86.567    -158.777
  C        7.918     -85.369    -158.285
  N        6.602     -85.016    -158.438
  O       10.213     -81.884    -154.949
  O        9.173     -81.800    -152.610
  H        3.401     -84.231    -156.986
  H       10.452     -80.990    -154.638
  H        3.374     -87.459    -160.323
  H        8.634     -84.739    -157.773
  H        5.176     -83.511    -158.479
  H        5.898     -85.123    -155.963
  H        5.472     -83.321    -154.590
  H        5.741     -81.289    -156.710
  H        8.180     -81.284    -156.013
  H        6.958     -90.171    -160.298
  H        8.303     -89.250    -159.615
  H        7.027     -80.938    -154.703
  P        3.408     -81.693    -154.467
  C        3.821     -79.235    -153.714
  O        3.699     -80.149    -154.796
  O        4.490     -82.040    -153.339
  O        2.019     -82.015    -154.030
  H        4.093     -81.939    -152.454
  H        4.013     -78.254    -154.096
  H        4.630     -79.536    -153.082
  H        2.912     -79.227    -153.150

 6  7  8  9  10  11  12  13  14  15  25  28  32  33  34  35 0
 6-311+G(2d,p)
 ****
 36  39  40 0
 6-311+G(2d,p)
 ****
 1  2  3  4  5  16  17  18  19  20  21  22  23  24 0
 3-21G
 ****
 26  27  29  30  31  37  38  41  42  43  44  45  46  47  48 0
 3-21G
 ****


