%nproc=1
%NoSave
%Mem=1900MB
#P OB98/GEN NMR

erre ene a

0 1
  C      -56.906     240.864    -977.830
  O      -56.748     239.770    -978.726
  P      -57.508     239.808    -980.135
  C      -55.383     239.996    -981.587
  O      -56.600     240.628    -981.175
  C      -54.435     241.021    -982.231
  O      -54.072     242.064    -981.306
  C      -53.123     240.413    -982.692
  O      -53.308     239.651    -983.876
  C      -52.253     241.646    -982.841
  O      -52.487     242.303    -984.106
  C      -52.761     242.543    -981.685
  N      -51.856     242.582    -980.547
  C      -50.765     243.458    -980.663
  O      -50.594     244.095    -981.699
  N      -49.886     243.555    -979.608
  C      -50.079     242.845    -978.532
  N      -49.189     242.984    -977.520
  C      -51.215     241.914    -978.374
  C      -52.058     241.825    -979.410
  O      -58.944     240.224    -980.088
  O      -57.359     238.293    -980.665
  H      -52.088     243.187    -984.029
  H      -58.138     238.079    -981.217
  H      -51.337     241.351    -977.455
  H      -52.909     241.175    -979.383
  H      -52.905     243.585    -982.033
  H      -51.192     241.417    -982.792
  H      -52.708     239.773    -981.894
  H      -54.965     241.477    -983.095
  H      -48.412     243.634    -977.660
  H      -55.607     239.200    -982.309
  H      -49.289     242.528    -976.625
  H      -54.919     239.522    -980.715
  P      -54.111     238.267    -983.754
  C      -56.260     239.248    -984.832
  O      -55.672     238.614    -983.717
  O      -53.790     237.783    -982.259
  O      -53.708     237.218    -984.749
  H      -53.737     236.823    -982.223
  H      -57.340     239.126    -984.781
  H      -55.894     238.818    -985.772
  H      -56.032     240.320    -984.815
  H      -56.337     240.683    -976.942
  H      -57.940     240.970    -977.576
  H      -56.560     241.762    -978.299

 3  4  5  6  7  8  9  10  11  12  13  23  27  28  29  30  32 0
 6-311+G(2d,p)
 ****
 34  35 0
 6-311+G(2d,p)
 ****
 1  2  14  15  16  17  18  19  20  21  22  24  25  26 0
 3-21G
 ****
 31  33  36  37  38  39  40  41  42  43  44  45  46 0
 3-21G
 ****


