%nproc=1
%NoSave
%Mem=1900MB
#P OB98/GEN NMR

erre ene a

0 1
  C       52.671      60.350    -111.507
  O       53.486      59.537    -110.686
  H       52.258      61.158    -110.897
  H       51.844      59.773    -111.928
  H       53.266      60.789    -112.311
  P       54.089      58.181    -111.296
  C       51.910      57.033    -110.539
  O       52.837      57.222    -111.600
  C       51.248      55.657    -110.636
  O       50.489      55.595    -111.876
  C       52.246      54.490    -110.632
  O       51.672      53.408    -109.895
  C       52.352      54.142    -112.103
  O       52.782      52.807    -112.290
  C       50.942      54.448    -112.618
  N       50.946      54.692    -114.059
  C       51.411      53.649    -114.868
  O       51.777      52.585    -114.361
  N       51.515      53.851    -116.221
  C       51.233      55.014    -116.724
  N       51.395      55.160    -118.066
  C       50.765      56.153    -115.904
  C       50.641      55.925    -114.596
  O       55.190      57.541    -110.517
  O       54.578      58.611    -112.759
  H       53.591      52.646    -111.757
  H       55.510      58.901    -112.729
  H       50.549      57.103    -116.368
  H       50.316      56.706    -113.914
  H       50.260      53.615    -112.404
  H       53.085      54.801    -112.587
  H       53.217      54.762    -110.204
  H       50.527      55.557    -109.816
  H       51.742      54.358    -118.581
  H       51.144      57.816    -110.616
  H       51.247      56.029    -118.561
  H       52.422      57.134    -109.576
  P       52.122      53.121    -108.383
  C       53.303      50.914    -108.924
  O       53.459      52.224    -108.389
  O       51.033      52.600    -107.494
  O       52.636      54.548    -107.859
  H       52.479      54.613    -106.896
  H       54.240      50.399    -108.885
  H       52.974      50.981    -109.940
  H       52.577      50.378    -108.349

 6  7  8  9  10  11  12  13  14  15  16  26  30  31  32  33  35 0
 6-311+G(2d,p)
 ****
 37  38 0
 6-311+G(2d,p)
 ****
 1  2  3  4  5  17  18  19  20  21  22  23  24  25 0
 3-21G
 ****
 27  28  29  34  36  39  40  41  42  43  44  45  46 0
 3-21G
 ****


