%nproc=1
%NoSave
%Mem=1900MB
#P OB98/GEN NMR

erre ene a

0 1
  C      189.022    -426.261    -892.450
  O      190.157    -427.110    -892.510
  P      191.548    -426.442    -892.940
  C      192.292    -424.917    -894.920
  O      191.300    -425.806    -894.390
  C      192.062    -424.676    -896.410
  O      190.702    -424.282    -896.640
  C      192.916    -423.555    -897.000
  O      194.240    -424.012    -897.220
  C      192.146    -423.245    -898.270
  O      192.558    -424.115    -899.340
  C      190.684    -423.519    -897.870
  N      189.903    -422.298    -897.720
  C      189.593    -421.647    -898.920
  O      190.005    -422.088    -900.000
  N      188.864    -420.471    -898.850
  C      188.480    -420.012    -897.700
  N      187.777    -418.858    -897.700
  C      188.822    -420.670    -896.420
  C      189.526    -421.806    -896.500
  O      192.484    -427.709    -893.240
  O      192.151    -425.520    -891.920
  H      193.545    -424.031    -899.380
  H      193.426    -427.488    -893.100
  H      188.469    -420.237    -895.490
  H      189.813    -422.355    -895.610
  H      190.194    -424.156    -898.610
  H      192.320    -422.213    -898.590
  H      192.921    -422.690    -896.330
  H      192.244    -425.623    -896.950
  H      187.579    -418.432    -898.590
  H      193.283    -425.357    -894.770
  H      187.408    -418.424    -896.860
  H      192.258    -423.961    -894.360
  P      195.389    -422.901    -897.320
  C      195.375    -420.575    -898.430
  O      194.900    -421.920    -898.490
  O      196.578    -423.716    -898.010
  O      195.832    -422.250    -896.050
  H      197.396    -423.163    -898.070
  H      195.125    -420.076    -899.360
  H      196.476    -420.574    -898.310
  H      194.914    -420.063    -897.600
  H      188.166    -426.830    -892.152
  H      188.847    -425.831    -893.414
  H      189.197    -425.481    -891.738

 3  4  5  6  7  8  9  10  11  12  13  21  23  27  28  29  30  32 0
 6-311+G(2d,p)
 ****
 34  35 0
 6-311+G(2d,p)
 ****
 1  2  14  15  16  17  18  19  20  22  24  25  26 0
 3-21G
 ****
 31  33  36  37  38  39  40  41  42  43  44  45  46 0
 3-21G
 ****


