%nproc=1
%NoSave
%Mem=1900MB
#P OB98/GEN NMR

erre ene a

0 1
  C       10.754      36.182    -119.499
  O       12.013      35.813    -120.026
  H       10.757      37.260    -119.314
  H       10.575      35.667    -118.551
  H        9.953      35.948    -120.206
  P       12.227      34.302    -120.530
  C       11.957      31.971    -119.456
  O       12.147      33.361    -119.233
  C       12.779      31.165    -118.448
  O       14.190      31.362    -118.685
  C       12.541      31.571    -116.999
  O       11.314      31.059    -116.518
  C       13.779      30.990    -116.332
  O       13.618      29.585    -116.088
  C       14.860      31.246    -117.408
  N       15.673      32.431    -117.129
  C       17.021      32.205    -116.850
  O       17.522      31.081    -116.798
  N       17.771      33.324    -116.598
  C       17.298      34.598    -116.487
  O       17.997      35.556    -116.172
  C       15.864      34.776    -116.767
  C       15.129      33.699    -117.073
  O       13.413      34.075    -121.404
  O       10.862      33.966    -121.298
  H       14.497      29.251    -115.826
  H       11.019      33.985    -122.261
  H       18.744      33.182    -116.382
  H       15.454      35.773    -116.705
  H       14.071      33.807    -117.278
  H       15.530      30.378    -117.485
  H       13.993      31.463    -115.374
  H       12.568      32.664    -116.904
  H       12.557      30.098    -118.600
  H       12.290      31.726    -120.474
  H       10.892      31.737    -119.365
  P       10.305      32.016    -115.725
  C       10.539      33.588    -113.701
  O       10.976      32.374    -114.313
  O        8.891      31.531    -115.648
  O       10.381      33.401    -116.526
  H        9.498      33.625    -116.877
  H       11.050      33.723    -112.771
  H        9.485      33.539    -113.525
  H       10.754      34.412    -114.349

 6  7  8  9  10  11  12  13  14  15  16  26  31  32  33  34  35 0
 6-311+G(2d,p)
 ****
 36  37 0
 6-311+G(2d,p)
 ****
 1  2  3  4  5  17  18  19  20  21  22  23  24  25 0
 3-21G
 ****
 27  28  29  30  38  39  40  41  42  43  44  45 0
 3-21G
 ****


