%nproc=1
%NoSave
%Mem=1900MB
#P OB98/GEN NMR

erre ene a

0 1
  C      843.811      90.418     748.708
  O      842.682      90.865     749.443
  P      842.953      91.667     750.813
  C      842.565      89.691     752.481
  O      842.079      90.928     751.940
  C      841.978      89.472     753.868
  O      842.457      90.475     754.789
  C      840.461      89.561     753.951
  O      839.828      88.355     753.524
  C      840.247      89.770     755.429
  O      840.341      88.519     756.138
  C      841.426      90.681     755.794
  N      838.640      94.169     758.177
  C      838.908      92.853     758.530
  N      838.314      92.399     759.651
  N      839.708      92.071     757.856
  C      840.246      92.670     756.753
  C      840.059      93.964     756.298
  C      839.160      94.800     757.051
  O      838.835      95.956     756.763
  N      840.760      94.193     755.163
  C      841.394      93.064     754.911
  N      841.067      92.088     755.828
  O      842.187      93.049     750.597
  O      844.390      91.877     751.133
  H      840.083      88.703     757.057
  H      842.494      93.707     751.230
  H      838.019      94.733     758.735
  H      842.056      92.878     754.083
  H      841.868      90.426     756.772
  H      839.262      90.191     755.663
  H      837.643      92.940     760.175
  H      840.091      90.427     753.386
  H      838.441      91.427     759.905
  H      842.323      88.479     754.217
  H      843.652      89.726     752.536
  H      842.276      88.881     751.803
  P      838.549      88.506     752.550
  C      836.919      88.582     754.568
  O      837.315      87.936     753.378
  O      838.825      87.398     751.420
  O      838.378      89.879     751.963
  H      838.387      87.648     750.587
  H      835.926      88.233     754.846
  H      836.869      89.671     754.418
  H      837.622      88.350     755.371
  H      843.483      89.905     747.828
  H      844.390      89.753     749.314
  H      844.410      91.259     748.428

 3  4  5  6  7  8  9  10  11  12  23  26  30  31 0
 6-311+G(2d,p)
 ****
 33  35  36  37  38 0
 6-311+G(2d,p)
 ****
 1  2  13  14  15  16  17  18  19  20  21  22  24  25 0
 3-21G
 ****
 27  28  29  32  34  39  40  41  42  43  44  45  46  47  48  49 0
 3-21G
 ****


