%nproc=1
%NoSave
%Mem=1900MB
#P OB98/GEN NMR

erre ene a

0 1
  C      -17.336     -66.433      51.074
  O      -18.378     -65.670      50.469
  P      -18.951     -64.293      51.032
  C      -17.776     -62.247      49.870
  O      -18.842     -63.187      49.882
  C      -17.531     -61.707      48.452
  O      -17.215     -62.829      47.573
  C      -18.766     -61.011      47.868
  O      -18.462     -59.811      47.163
  C      -19.444     -62.122      47.084
  O      -20.353     -61.649      46.103
  C      -18.250     -62.919      46.566
  N      -18.687     -66.570      43.025
  C      -18.474     -65.216      42.864
  N      -18.379     -64.764      41.596
  N      -18.378     -64.374      43.858
  C      -18.570     -64.941      45.069
  C      -18.803     -66.267      45.357
  C      -18.857     -67.199      44.251
  O      -19.023     -68.413      44.341
  N      -18.935     -66.470      46.707
  C      -18.803     -65.268      47.233
  N      -18.570     -64.306      46.277
  O      -18.482     -63.898      52.391
  O      -20.541     -64.552      51.125
  H      -19.832     -61.247      45.383
  H      -20.861     -64.022      51.883
  H      -18.729     -67.177      42.225
  H      -18.851     -65.041      48.291
  H      -17.850     -62.505      45.639
  H      -20.026     -62.721      47.797
  H      -18.566     -65.335      40.786
  H      -19.437     -60.673      48.667
  H      -18.446     -63.752      41.479
  H      -16.664     -61.039      48.474
  H      -16.891     -62.791      50.219
  H      -17.966     -61.436      50.575
  P      -18.739     -58.300      47.599
  C      -16.809     -56.930      48.587
  O      -17.389     -57.460      47.410
  O      -18.908     -58.351      49.189
  O      -19.945     -57.680      46.972
  H      -19.805     -58.049      49.436
  H      -16.069     -56.175      48.305
  H      -16.307     -57.728      49.141
  H      -17.570     -56.463      49.219
  H      -17.150     -67.310      50.489
  H      -17.631     -66.719      52.062
  H      -16.445     -65.843      51.125

 3  4  5  6  7  8  9  10  11  12  23  26  30  31 0
 6-311+G(2d,p)
 ****
 33  35  36  37  38 0
 6-311+G(2d,p)
 ****
 1  2  13  14  15  16  17  18  19  20  21  22  24  25 0
 3-21G
 ****
 27  28  29  32  34  39  40  41  42  43  44  45  46  47  48  49 0
 3-21G
 ****


