%nproc=1
%NoSave
%Mem=1900MB
#P OB98/GEN NMR

erre ene a

0 1
  C       92.755     544.161     671.653
  O       91.366     544.014     671.919
  P       90.716     544.970     673.034
  C       90.330     546.825     671.202
  O       90.860     546.465     672.469
  C       89.428     548.054     671.342
  O       88.408     547.806     672.335
  C       90.148     549.317     671.799
  O       90.881     549.921     670.746
  C       88.975     550.150     672.319
  O       88.291     550.784     671.224
  C       88.077     549.072     672.956
  N       88.203     548.999     674.410
  C       87.310     549.778     675.144
  O       86.456     550.490     674.624
  N       87.452     549.717     676.508
  C       88.412     549.023     677.185
  O       88.518     549.040     678.404
  C       89.349     548.248     676.355
  C       89.201     548.270     675.025
  O       91.814     544.862     674.193
  O       89.337     544.556     673.427
  H       92.699     544.661     673.835
  H       87.495     551.203     671.602
  H       86.801     550.255     677.060
  H       90.128     547.692     676.858
  H       89.881     547.713     674.401
  H       87.025     549.261     672.708
  H       89.290     550.939     673.009
  H       90.824     549.081     672.633
  H       88.927     548.227     670.383
  H       89.742     545.985     670.806
  H       91.155     547.031     670.515
  P       91.903     551.088     671.162
  C       93.456     549.368     672.380
  O       92.693     550.557     672.447
  O       90.898     552.192     671.741
  O       92.760     551.564     670.029
  H       90.199     551.811     672.297
  H       94.177     549.369     673.198
  H       93.993     549.295     671.432
  H       92.791     548.507     672.490
  H       93.048     543.466     670.895
  H       93.311     543.970     672.547
  H       92.950     545.158     671.317

 3  4  5  6  7  8  9  10  11  12  13  24  28  29  30  31  32 0
 6-311+G(2d,p)
 ****
 33  34 0
 6-311+G(2d,p)
 ****
 1  2  14  15  16  17  18  19  20  21  22  23  25  26  27 0
 3-21G
 ****
 35  36  37  38  39  40  41  42  43  44  45 0
 3-21G
 ****


