%nproc=1
%NoSave
%Mem=1900MB
#P OB98/GEN NMR

erre ene a

0 1
  C     -391.368     236.588     189.466
  O     -390.969     237.438     190.530
  P     -389.704     237.010     191.416
  C     -391.095     236.837     193.610
  O     -390.009     237.445     192.932
  C     -391.889     237.884     194.396
  O     -391.023     238.508     195.388
  C     -392.473     239.009     193.525
  O     -393.724     239.407     194.106
  C     -391.456     240.119     193.703
  O     -391.956     241.399     193.365
  C     -391.107     239.934     195.186
  N     -389.869     240.610     195.568
  C     -389.979     241.821     196.242
  O     -391.056     242.350     196.527
  N     -388.801     242.454     196.532
  C     -387.559     242.055     196.142
  O     -386.551     242.727     196.334
  C     -387.496     240.764     195.433
  C     -388.632     240.114     195.185
  O     -388.568     238.030     190.947
  O     -389.286     235.587     191.254
  H     -392.115     241.409     192.405
  H     -387.963     237.602     190.310
  H     -388.863     243.333     197.027
  H     -386.520     240.405     195.131
  H     -388.621     239.176     194.646
  H     -391.930     240.298     195.811
  H     -390.585     239.922     193.060
  H     -392.613     238.722     192.476
  H     -392.697     237.375     194.944
  H     -390.709     236.087     194.305
  H     -391.742     236.319     192.887
  P     -395.001     239.520     193.133
  C     -395.694     241.798     194.229
  O     -396.055     240.479     193.874
  O     -395.632     238.054     193.299
  O     -394.656     239.873     191.724
  H     -395.635     237.748     194.221
  H     -395.011     242.236     193.494
  H     -395.216     241.790     195.210
  H     -396.595     242.410     194.276
  H     -392.220     237.008     188.974
  H     -391.620     235.624     189.855
  H     -390.564     236.491     188.766

 3  4  5  6  7  8  9  10  11  12  13  23  28  29  30  31  32 0
 6-311+G(2d,p)
 ****
 33  34 0
 6-311+G(2d,p)
 ****
 1  2  14  15  16  17  18  19  20  21  22  24  25  26 0
 3-21G
 ****
 27  35  36  37  38  39  40  41  42  43  44  45 0
 3-21G
 ****


