%nproc=1
%NoSave
%Mem=1900MB
#P OB98/GEN NMR

erre ene a

0 1
  C      -68.041      28.912      92.789
  O      -68.908      29.913      92.286
  P      -70.425      29.517      91.961
  C      -69.827      29.213      89.448
  O      -70.425      28.654      90.609
  C      -70.221      28.410      88.206
  O      -69.768      27.031      88.360
  C      -71.734      28.367      87.942
  O      -71.925      28.337      86.521
  C      -72.133      27.030      88.539
  O      -73.374      26.548      88.048
  C      -70.917      26.185      88.143
  N      -70.820      24.938      88.901
  C      -71.122      23.757      88.229
  O      -71.462      23.705      87.047
  N      -71.080      22.616      88.984
  C      -70.863      22.548      90.330
  O      -70.956      21.506      90.968
  C      -70.550      23.827      90.986
  C      -70.542      24.945      90.255
  O      -71.082      30.909      91.524
  O      -71.161      28.884      93.095
  H      -73.286      26.439      87.083
  H      -71.591      31.293      92.262
  H      -71.285      21.749      88.511
  H      -70.352      23.807      92.050
  H      -70.334      25.904      90.717
  H      -70.949      25.957      87.070
  H      -72.216      27.127      89.628
  H      -72.280      29.208      88.383
  H      -69.695      28.829      87.339
  H      -68.742      29.192      89.560
  H      -70.135      30.260      89.345
  P      -73.133      29.200      85.905
  C      -74.672      27.088      85.995
  O      -74.488      28.450      86.314
  O      -72.969      28.872      84.344
  O      -73.054      30.657      86.223
  H      -72.789      27.933      84.176
  H      -73.732      26.533      86.043
  H      -75.091      27.005      84.990
  H      -75.377      26.649      86.706
  H      -67.070      29.331      92.954
  H      -67.969      28.114      92.080
  H      -68.429      28.535      93.712

 3  4  5  6  7  8  9  10  11  12  13  23  28  29  30  31  32 0
 6-311+G(2d,p)
 ****
 33  34 0
 6-311+G(2d,p)
 ****
 1  2  14  15  16  17  18  19  20  21  22  24  25  26 0
 3-21G
 ****
 27  35  36  37  38  39  40  41  42  43  44  45 0
 3-21G
 ****


