%nproc=1
%NoSave
%Mem=1900MB
#P OB98/GEN NMR

erre ene a

0 1
  C      248.941     206.293     116.759
  O      248.379     206.605     115.479
  P      248.108     208.151     115.151
  C      246.368     209.925     115.932
  O      246.664     208.548     115.717
  C      244.866     210.113     116.151
  O      244.120     209.798     114.960
  C      244.299     209.205     117.229
  O      244.605     209.703     118.516
  C      242.810     209.214     116.903
  O      242.123     210.274     117.589
  C      242.788     209.446     115.375
  N      242.293     208.294     114.639
  C      240.969     208.374     114.198
  O      240.286     209.368     114.455
  N      240.446     207.316     113.498
  C      241.171     206.263     113.283
  N      240.596     205.244     112.589
  C      242.565     206.129     113.756
  C      243.056     207.171     114.420
  O      247.899     208.157     113.566
  O      249.221     209.062     115.562
  H      242.499     211.107     117.235
  H      248.228     208.991     113.183
  H      243.127     205.228     113.558
  H      244.072     207.159     114.807
  H      242.149     210.303     115.126
  H      242.327     208.281     117.206
  H      244.697     208.187     117.108
  H      244.680     211.163     116.414
  H      239.639     205.370     112.281
  H      246.698     210.520     115.080
  H      241.067     204.379     112.371
  H      246.939     210.277     116.799
  P      245.554     208.817     119.452
  C      245.122     206.939     121.151
  O      244.552     207.990     120.393
  O      246.133     209.910     120.473
  O      246.641     208.040     118.791
  H      246.808     209.507     121.049
  H      244.393     206.601     121.891
  H      246.018     207.286     121.675
  H      245.373     206.101     120.497
  H      249.068     205.234     116.844
  H      248.284     206.636     117.530
  H      249.891     206.776     116.859

 3  4  5  6  7  8  9  10  11  12  13  21  23  27  28  29  30  32 0
 6-311+G(2d,p)
 ****
 34  35 0
 6-311+G(2d,p)
 ****
 1  2  14  15  16  17  18  19  20  22  24  25  26 0
 3-21G
 ****
 31  33  36  37  38  39  40  41  42  43  44  45  46 0
 3-21G
 ****


