%nproc=1
%NoSave
%Mem=1900MB
#P OB98/GEN NMR

erre ene a

0 1
  C     -177.200      35.552     361.944
  O     -176.443      36.736     362.051
  P     -175.468      37.191     360.859
  C     -176.553      39.517     360.660
  O     -176.279      38.281     360.004
  C     -177.523      40.346     359.824
  O     -178.785      39.654     359.641
  C     -177.919      41.673     360.465
  O     -176.912      42.646     360.613
  C     -179.131      42.051     359.633
  O     -178.750      42.649     358.392
  C     -179.789      40.668     359.389
  N     -180.979      40.471     360.216
  C     -182.192      40.777     359.611
  O     -182.296      41.188     358.457
  N     -183.302      40.626     360.398
  C     -183.318      40.249     361.707
  O     -184.347      40.176     362.367
  C     -182.000      39.957     362.296
  C     -180.906      40.079     361.536
  O     -174.886      36.077     360.054
  O     -174.373      38.092     361.607
  H     -179.566      42.951     357.949
  H     -174.733      38.871     362.066
  H     -184.195      40.855     359.981
  H     -181.973      39.646     363.334
  H     -179.923      39.869     361.950
  H     -180.080      40.564     358.335
  H     -179.776      42.772     360.151
  H     -178.281      41.464     361.478
  H     -177.091      40.491     358.831
  H     -175.615      40.071     360.777
  H     -176.957      39.317     361.661
  P     -176.261      43.038     362.026
  C     -173.848      42.636     361.169
  O     -174.829      42.327     362.135
  O     -177.161      42.970     363.217
  O     -175.852      44.573     361.774
  H     -175.911      45.058     362.617
  H     -172.958      42.032     361.372
  H     -173.576      43.691     361.221
  H     -174.212      42.391     360.165
  H     -177.783      35.420     362.831
  H     -176.542      34.717     361.823
  H     -177.850      35.620     361.097

 3  4  5  6  7  8  9  10  11  12  13  23  28  29  30  31  32 0
 6-311+G(2d,p)
 ****
 33  34 0
 6-311+G(2d,p)
 ****
 1  2  14  15  16  17  18  19  20  21  22  24  25  26  27 0
 3-21G
 ****
 35  36  37  38  39  40  41  42  43  44  45 0
 3-21G
 ****


