%nproc=1
%NoSave
%Mem=1900MB
#P OB98/GEN NMR

erre ene a

0 1
  C      314.085    -299.659     216.935
  O      313.259    -300.570     217.640
  P      313.421    -300.776     219.216
  C      310.867    -300.621     219.804
  O      312.058    -301.376     219.789
  C      309.671    -301.579     219.701
  O      309.686    -302.510     220.801
  C      308.345    -300.824     219.737
  O      307.881    -300.566     218.423
  C      307.451    -301.769     220.517
  O      306.941    -302.805     219.657
  C      308.446    -302.368     221.542
  N      308.731    -301.594     222.764
  C      309.253    -302.241     223.882
  O      309.527    -303.435     223.916
  N      309.429    -301.454     224.993
  C      309.184    -300.111     225.070
  O      309.116    -299.479     226.116
  C      308.897    -299.451     223.796
  C      308.667    -300.208     222.724
  O      313.431    -299.278     219.777
  O      314.631    -301.541     219.645
  H      306.449    -303.431     220.221
  H      314.344    -298.976     219.940
  H      309.677    -301.942     225.848
  H      308.832    -298.369     223.780
  H      308.413    -299.737     221.776
  H      308.128    -303.366     221.858
  H      306.582    -301.249     220.918
  H      308.453    -299.894     220.308
  H      309.759    -302.155     218.769
  H      310.859    -299.913     218.971
  H      310.803    -300.036     220.727
  P      307.245    -299.135     218.079
  C      307.948    -299.069     215.616
  O      306.872    -299.205     216.520
  O      308.055    -297.954     218.492
  O      305.830    -299.177     218.825
  H      305.893    -298.714     219.688
  H      307.596    -299.309     214.610
  H      308.764    -299.748     215.879
  H      308.312    -298.037     215.624
  H      313.821    -299.667     215.898
  H      315.109    -299.948     217.044
  H      313.948    -298.674     217.330

 3  4  5  6  7  8  9  10  11  12  13  23  28  29  30  31  32 0
 6-311+G(2d,p)
 ****
 33  34 0
 6-311+G(2d,p)
 ****
 1  2  14  15  16  17  18  19  20  21  22  24  25  26  27 0
 3-21G
 ****
 35  36  37  38  39  40  41  42  43  44  45 0
 3-21G
 ****


