%nproc=1
%NoSave
%Mem=1900MB
#P OB98/GEN NMR

erre ene a

0 1
  C      -25.137     391.602    -255.546
  O      -24.403     391.842    -254.336
  P      -25.006     392.942    -253.325
  C      -24.033     391.584    -251.345
  O      -24.183     392.864    -251.946
  C      -23.201     391.678    -250.055
  O      -21.786     391.845    -250.362
  C      -23.605     392.835    -249.135
  O      -23.413     392.407    -247.783
  C      -22.579     393.899    -249.466
  O      -22.485     394.876    -248.438
  C      -21.338     393.032    -249.667
  N      -16.401     394.342    -249.732
  C      -17.146     393.660    -248.835
  N      -18.464     393.367    -248.882
  C      -19.007     393.829    -250.026
  C      -18.378     394.549    -251.027
  C      -17.003     394.819    -250.851
  N      -16.257     395.530    -251.748
  N      -19.281     394.896    -252.020
  C      -20.431     394.391    -251.616
  N      -20.307     393.712    -250.434
  O      -26.441     392.346    -252.954
  O      -25.120     394.306    -253.924
  H      -21.881     395.592    -248.732
  H      -27.145     392.866    -253.377
  H      -16.605     393.302    -247.955
  H      -21.372     394.489    -252.139
  H      -20.883     392.729    -248.715
  H      -22.858     394.412    -250.404
  H      -24.636     393.185    -249.283
  H      -23.311     390.718    -249.514
  H      -23.530     390.898    -252.046
  H      -15.280     395.698    -251.534
  H      -16.708     395.927    -252.561
  H      -25.018     391.150    -251.157
  P      -24.720     392.389    -246.847
  C      -24.384     389.908    -246.158
  O      -24.456     391.258    -245.741
  O      -25.849     391.750    -247.785
  O      -25.110     393.734    -246.323
  H      -26.733     392.053    -247.499
  H      -23.582     389.414    -245.608
  H      -24.181     389.817    -247.236
  H      -25.333     389.417    -245.934
  H      -24.635     390.856    -256.126
  H      -25.201     392.509    -256.110
  H      -26.122     391.263    -255.304

 3  4  5  6  7  8  9  10  11  12  22  25  29  30  31  32 0
 6-311+G(2d,p)
 ****
 33  36  37 0
 6-311+G(2d,p)
 ****
 1  2  13  14  15  16  17  18  19  20  21  23  24  26 0
 3-21G
 ****
 27  28  34  35  38  39  40  41  42  43  44  45  46  47  48 0
 3-21G
 ****


