%nproc=1
%NoSave
%Mem=1900MB
#P OB98/GEN NMR

erre ene a

0 1
  C     -550.568     308.663     100.153
  O     -549.533     308.912     101.091
  P     -548.083     309.304     100.528
  C     -548.286     311.889     100.401
  O     -548.225     310.660      99.682
  C     -547.148     312.819      99.968
  O     -545.866     312.176     100.230
  C     -547.177     313.181      98.482
  O     -546.687     314.519      98.304
  C     -546.159     312.242      97.871
  O     -545.654     312.749      96.634
  C     -545.122     312.170      98.993
  N     -541.772     309.661      96.162
  C     -542.200     310.972      96.062
  N     -541.728     311.679      95.017
  N     -543.003     311.541      96.925
  C     -543.401     310.706      97.917
  C     -543.036     309.394      98.130
  C     -542.151     308.775      97.165
  O     -541.756     307.618      97.176
  N     -543.608     308.892      99.266
  C     -544.361     309.877      99.721
  N     -544.293     310.987      98.918
  O     -547.824     308.189      99.407
  O     -546.999     309.295     101.554
  H     -545.155     312.016      96.214
  H     -547.178     307.536      99.734
  H     -541.160     309.268      95.466
  H     -544.985     309.833     100.604
  H     -544.465     313.046      98.998
  H     -546.615     311.261      97.674
  H     -541.158     311.280      94.283
  H     -548.166     313.089      98.008
  H     -542.061     312.628      94.898
  H     -547.184     313.724     100.589
  H     -548.190     311.680     101.473
  H     -549.248     312.372     100.229
  P     -547.757     315.586      97.763
  C     -548.827     316.364     100.003
  O     -548.954     315.592      98.826
  O     -548.392     314.863      96.480
  O     -547.169     316.924      97.435
  H     -548.727     315.526      95.856
  H     -549.607     317.136     100.006
  H     -547.850     316.847     100.084
  H     -548.975     315.714     100.869
  H     -551.469     308.415     100.674
  H     -550.287     307.848      99.519
  H     -550.729     309.538      99.558

 3  4  5  6  7  8  9  10  11  12  23  26  30  31 0
 6-311+G(2d,p)
 ****
 33  35  36  37  38 0
 6-311+G(2d,p)
 ****
 1  2  13  14  15  16  17  18  19  20  21  22  24  25 0
 3-21G
 ****
 27  28  29  32  34  39  40  41  42  43  44  45  46  47  48  49 0
 3-21G
 ****


