%nproc=1
%NoSave
%Mem=1900MB
#P OB98/GEN NMR

erre ene a

0 1
  C      884.350    -559.451    -774.220
  O      885.288    -559.694    -773.190
  P      886.173    -558.514    -772.528
  C      885.467    -558.806    -770.056
  O      886.529    -558.918    -771.013
  C      885.469    -559.982    -769.057
  O      884.998    -561.187    -769.684
  C      886.861    -560.306    -768.492
  O      887.220    -559.392    -767.485
  C      886.640    -561.749    -768.018
  O      885.991    -561.764    -766.755
  C      885.694    -562.294    -769.104
  N      888.035    -566.708    -770.261
  C      887.395    -566.279    -769.143
  N      886.796    -565.109    -768.912
  C      886.893    -564.317    -769.995
  C      887.500    -564.606    -771.196
  C      888.098    -565.879    -771.321
  N      888.754    -566.304    -772.452
  N      887.405    -563.534    -772.078
  C      886.734    -562.607    -771.413
  N      886.398    -563.043    -770.145
  O      885.560    -557.143    -772.667
  O      887.588    -558.587    -773.270
  H      885.199    -561.190    -766.813
  H      887.996    -557.689    -773.288
  H      887.356    -567.002    -768.313
  H      886.469    -561.644    -771.796
  H      884.938    -562.967    -768.696
  H      887.579    -562.303    -767.923
  H      887.608    -560.293    -769.304
  H      884.765    -559.717    -768.246
  H      884.507    -558.799    -770.596
  H      889.182    -567.212    -772.434
  H      888.855    -565.664    -773.237
  H      885.589    -557.864    -769.521
  P      888.734    -559.353    -766.927
  C      889.423    -556.932    -767.534
  O      889.017    -557.822    -766.506
  O      889.762    -559.982    -767.823
  O      888.653    -560.107    -765.515
  H      889.506    -560.533    -765.341
  H      890.486    -557.094    -767.762
  H      889.266    -555.901    -767.200
  H      888.826    -557.112    -768.450
  H      883.884    -560.372    -774.503
  H      884.851    -559.030    -775.067
  H      883.605    -558.767    -773.870

 3  4  5  6  7  8  9  10  11  12  22  25  29  30  31  32 0
 6-311+G(2d,p)
 ****
 33  36  37 0
 6-311+G(2d,p)
 ****
 1  2  13  14  15  16  17  18  19  20  21  23  24  26 0
 3-21G
 ****
 27  28  34  35  38  39  40  41  42  43  44  45  46  47  48 0
 3-21G
 ****


