%nproc=1
%NoSave
%Mem=1900MB
#P OB98/GEN NMR

erre ene a

0 1
  C     -261.495     317.061     193.039
  O     -262.916     317.004     192.880
  P     -263.585     317.755     191.627
  C     -264.016     320.102     192.608
  O     -263.234     319.316     191.712
  C     -263.789     321.610     192.356
  O     -264.368     322.012     191.075
  C     -264.433     322.478     193.441
  O     -263.645     323.672     193.655
  C     -265.737     322.903     192.802
  O     -266.273     324.084     193.419
  C     -265.299     323.077     191.343
  N     -269.729     325.251     189.951
  C     -268.811     325.589     190.886
  N     -267.641     324.986     191.176
  C     -267.462     323.910     190.389
  C     -268.310     323.433     189.398
  C     -269.497     324.157     189.191
  N     -270.448     323.776     188.266
  N     -267.772     322.307     188.803
  C     -266.673     322.072     189.452
  N     -266.408     323.023     190.413
  O     -265.021     317.448     191.377
  O     -262.675     317.267     190.397
  H     -265.620     324.804     193.272
  H     -263.257     317.072     189.626
  H     -269.052     326.482     191.461
  H     -266.010     321.216     189.300
  H     -264.774     324.023     191.187
  H     -266.480     322.093     192.914
  H     -264.582     321.977     194.410
  H     -262.713     321.793     192.290
  H     -263.766     319.850     193.634
  H     -271.320     324.285     188.265
  H     -270.343     322.896     187.784
  H     -265.068     319.835     192.483
  P     -262.781     323.690     195.015
  C     -264.363     324.250     197.027
  O     -263.778     323.269     196.189
  O     -262.037     324.973     195.224
  O     -261.818     322.424     194.820
  H     -262.289     321.601     194.574
  H     -265.115     323.754     197.660
  H     -264.860     325.011     196.425
  H     -263.599     324.707     197.653
  H     -261.212     316.515     193.915
  H     -261.188     318.081     193.140
  H     -261.023     316.629     192.181

 3  4  5  6  7  8  9  10  11  12  22  25  29  30  31  32 0
 6-311+G(2d,p)
 ****
 33  36  37 0
 6-311+G(2d,p)
 ****
 1  2  13  14  15  16  17  18  19  20  21  23  24  26 0
 3-21G
 ****
 27  28  34  35  38  39  40  41  42  43  44  45  46  47  48 0
 3-21G
 ****


