%nproc=1
%NoSave
%Mem=1900MB
#P OB98/GEN NMR

erre ene a

0 1
  C      342.600    -943.820    -177.693
  O      341.587    -943.341    -178.565
  P      340.181    -942.843    -177.992
  C      339.561    -945.049    -176.821
  O      339.216    -944.126    -177.836
  C      338.348    -945.898    -176.434
  O      337.236    -945.055    -176.086
  C      337.841    -946.791    -177.550
  O      338.694    -947.906    -177.776
  C      336.454    -947.155    -177.036
  O      336.523    -948.205    -176.066
  C      336.031    -945.825    -176.371
  N      335.065    -945.077    -177.168
  C      333.760    -945.562    -177.174
  O      333.485    -946.612    -176.616
  N      332.800    -944.828    -177.841
  C      333.148    -943.794    -178.533
  N      332.155    -943.083    -179.136
  C      334.548    -943.349    -178.668
  C      335.450    -944.011    -177.946
  O      339.574    -941.685    -178.697
  O      340.501    -942.473    -176.458
  H      340.145    -941.583    -176.269
  H      335.638    -948.265    -175.650
  H      334.794    -942.526    -179.332
  H      336.504    -943.733    -177.982
  H      335.577    -946.027    -175.379
  H      335.778    -947.485    -177.839
  H      337.749    -946.208    -178.482
  H      338.624    -946.487    -175.554
  H      331.206    -943.405    -178.997
  H      339.912    -944.497    -175.938
  H      332.275    -942.113    -179.403
  H      340.382    -945.684    -177.173
  P      339.594    -947.862    -179.104
  C      337.855    -949.384    -180.294
  O      339.202    -949.165    -179.988
  O      341.067    -948.181    -178.577
  O      339.549    -946.572    -179.859
  H      341.723    -947.663    -179.087
  H      337.811    -950.059    -181.157
  H      337.348    -948.449    -180.574
  H      337.354    -949.836    -179.441
  H      343.459    -944.103    -178.265
  H      342.235    -944.669    -177.154
  H      342.870    -943.049    -177.002

 3  4  5  6  7  8  9  10  11  12  13  24  27  28  29  30  32 0
 6-311+G(2d,p)
 ****
 34  35 0
 6-311+G(2d,p)
 ****
 1  2  14  15  16  17  18  19  20  21  22  23  25  26 0
 3-21G
 ****
 31  33  36  37  38  39  40  41  42  43  44  45  46 0
 3-21G
 ****


