%nproc=1
%NoSave
%Mem=1900MB
#P OB98/GEN NMR

erre ene a

0 1
  C      151.968     -77.629      71.794
  O      151.808     -76.692      70.738
  P      151.822     -75.131      71.115
  C      149.248     -74.873      71.183
  O      150.462     -74.846      71.922
  C      148.110     -74.251      71.984
  O      146.937     -74.144      71.132
  C      147.702     -75.054      73.232
  O      147.496     -74.152      74.330
  C      146.351     -75.636      72.852
  O      145.549     -75.910      73.996
  C      145.813     -74.525      71.952
  N      140.830     -75.362      71.945
  C      141.619     -74.742      72.893
  N      140.999     -74.340      74.024
  N      142.902     -74.537      72.750
  C      143.383     -74.962      71.555
  C      142.702     -75.581      70.532
  C      141.294     -75.856      70.731
  O      140.561     -76.481      69.967
  N      143.529     -75.848      69.472
  C      144.709     -75.397      69.854
  N      144.684     -74.893      71.128
  O      151.582     -74.422      69.701
  O      153.072     -74.645      71.760
  H      146.095     -76.441      74.605
  H      152.307     -73.795      69.520
  H      139.850     -75.511      72.111
  H      145.611     -75.441      69.254
  H      145.518     -73.652      72.552
  H      146.502     -76.568      72.298
  H      140.007     -74.436      74.182
  H      148.420     -75.830      73.520
  H      141.556     -73.865      74.721
  H      148.396     -73.227      72.262
  H      148.994     -75.913      70.945
  H      149.392     -74.322      70.247
  P      148.023     -74.653      75.762
  C      145.592     -74.811      76.689
  O      146.810     -75.477      76.406
  O      148.078     -73.310      76.628
  O      149.337     -75.358      75.709
  H      148.720     -73.400      77.357
  H      145.568     -73.799      76.269
  H      145.463     -74.747      77.772
  H      144.764     -75.387      76.266
  H      151.938     -78.622      71.397
  H      151.177     -77.505      72.504
  H      152.909     -77.466      72.276

 3  4  5  6  7  8  9  10  11  12  23  26  30  31  33  0
 6-311+G(2d,p)
 ****
 35  36  37  38 0
 6-311+G(2d,p)
 ****
 1  2  13  14  15  16  17  18  19  20  21  22  24  25  27  28  29 0
 3-21G
 ****
 32  34  39  40  41  42  43  44  45  46  47  48  49 0
 3-21G
 ****


