%nproc=1
%NoSave
%Mem=1900MB
#P OB98/GEN NMR

erre ene a

0 1
  C      497.158     303.627     595.053
  O      497.890     302.445     595.382
  P      498.108     302.090     596.930
  C      496.031     300.557     597.108
  O      497.450     300.653     597.225
  C      495.567     299.106     597.311
  O      494.117     299.070     597.289
  C      496.025     298.125     596.224
  O      497.281     297.470     596.388
  C      494.946     297.044     596.324
  O      495.284     296.124     597.383
  C      493.693     297.825     596.697
  N      489.171     296.761     594.549
  C      489.744     296.344     595.702
  N      490.956     296.675     596.194
  C      491.580     297.538     595.387
  C      491.118     298.050     594.184
  C      489.853     297.624     593.760
  N      489.271     298.037     592.583
  N      492.054     298.906     593.627
  C      493.069     298.892     594.472
  N      492.827     298.094     595.556
  O      497.758     303.166     597.904
  O      499.676     301.757     596.989
  H      494.518     295.519     597.478
  H      500.039     302.099     597.833
  H      489.156     295.648     596.297
  H      493.988     299.442     594.338
  H      493.079     297.297     597.441
  H      494.868     296.447     595.409
  H      495.985     298.598     595.227
  H      495.909     298.755     598.291
  H      495.724     300.912     596.122
  H      488.377     297.647     592.331
  H      489.789     298.639     591.956
  H      495.596     301.240     597.845
  P      498.545     297.842     595.475
  C      500.036     298.656     597.453
  O      499.823     297.716     596.426
  O      498.433     299.135     594.745
  O      498.674     296.558     594.526
  H      498.948     295.751     594.983
  H      500.826     298.279     598.120
  H      499.127     298.809     598.038
  H      500.365     299.606     597.021
  H      497.099     303.725     593.989
  H      497.656     304.481     595.463
  H      496.171     303.560     595.461

 3  4  5  6  7  8  9  10  11  12  22  25  29  30  31  32 0
 6-311+G(2d,p)
 ****
 33  36  37 0
 6-311+G(2d,p)
 ****
 1  2  13  14  15  16  17  18  19  20  21  23  24  26 0
 3-21G
 ****
 27  28  34  35  38  39  40  41  42  43  44  45  46  47  48 0
 3-21G
 ****


