%nproc=1
%NoSave
%Mem=1900MB
#P OB98/GEN NMR

erre ene a

0 1
  C      -41.065     334.536     342.638
  O      -40.040     334.079     341.752
  P      -39.481     335.068     340.620
  C      -39.662     333.100     338.944
  O      -38.882     334.201     339.411
  C      -38.757     331.887     338.698
  O      -38.405     331.222     339.935
  C      -39.440     330.801     337.862
  O      -39.675     331.102     336.497
  C      -38.586     329.581     338.165
  O      -37.408     329.541     337.360
  C      -38.218     329.822     339.650
  N      -38.997     328.979     340.570
  C      -38.372     328.632     341.761
  O      -37.217     328.958     342.037
  N      -39.107     327.854     342.623
  C      -40.369     327.383     342.387
  O      -40.978     326.673     343.183
  C      -40.970     327.766     341.099
  C      -40.268     328.535     340.262
  O      -38.608     336.177     341.100
  O      -40.832     335.663     339.977
  H      -36.827     330.266     337.666
  H      -40.687     336.616     339.807
  H      -38.679     327.604     343.495
  H      -41.965     327.399     340.882
  H      -40.696     328.826     339.308
  H      -37.155     329.601     339.824
  H      -39.136     328.650     337.981
  H      -40.429     330.613     338.298
  H      -37.829     332.228     338.234
  H      -40.183     333.379     338.025
  H      -40.439     332.872     339.687
  P      -40.957     330.584     335.690
  C      -39.975     329.627     333.489
  O      -40.649     330.696     334.118
  O      -42.297     331.051     336.168
  O      -40.859     328.993     335.933
  H      -41.773     328.630     335.973
  H      -39.831     329.880     332.428
  H      -40.564     328.710     333.547
  H      -38.982     329.477     333.935
  H      -41.317     333.755     343.324
  H      -41.931     334.807     342.072
  H      -40.713     335.388     343.181

 3  4  5  6  7  8  9  10  11  12  13  23  28  29  30  31  32 0
 6-311+G(2d,p)
 ****
 33  34 0
 6-311+G(2d,p)
 ****
 1  2  14  15  16  17  18  19  20  21  22  24  25  26  27 0
 3-21G
 ****
 35  36  37  38  39  40  41  42  43  44  45 0
 3-21G
 ****


