%nproc=1
%NoSave
%Mem=1900MB
#P OB98/GEN NMR

erre ene a

0 1
  C      -20.330     301.684     -38.821
  O      -20.203     300.635     -37.870
  P      -20.821     299.208     -38.251
  C      -23.225     298.338     -38.778
  O      -22.418     299.350     -38.199
  C      -24.487     298.137     -37.935
  O      -24.138     297.961     -36.547
  C      -25.444     299.318     -37.980
  O      -26.210     299.321     -39.170
  C      -26.276     299.086     -36.722
  O      -27.338     298.147     -36.973
  C      -25.234     298.483     -35.757
  N      -24.773     299.447     -34.760
  C      -25.593     299.613     -33.646
  O      -26.661     299.004     -33.505
  N      -25.172     300.518     -32.718
  C      -24.056     301.313     -32.814
  O      -23.759     302.154     -31.974
  C      -23.247     301.115     -34.031
  C      -23.632     300.217     -34.931
  O      -20.478     298.293     -36.983
  O      -20.300     298.622     -39.520
  H      -27.873     298.109     -36.156
  H      -20.288     297.380     -37.276
  H      -25.736     300.638     -31.892
  H      -22.355     301.725     -34.136
  H      -23.057     300.062     -35.833
  H      -25.661     297.619     -35.228
  H      -26.742     300.007     -36.360
  H      -24.884     300.260     -37.866
  H      -24.992     297.219     -38.280
  H      -22.655     297.407     -38.824
  H      -23.489     298.634     -39.800
  P      -26.383     300.741     -39.919
  C      -27.495     302.993     -39.197
  O      -27.306     301.612     -38.946
  O      -27.335     300.315     -41.134
  O      -25.080     301.348     -40.323
  H      -27.946     299.597     -40.895
  H      -27.531     303.199     -40.271
  H      -26.684     303.562     -38.737
  H      -28.440     303.303     -38.746
  H      -19.875     302.572     -38.435
  H      -21.366     301.868     -39.012
  H      -19.844     301.401     -39.731

 3  4  5  6  7  8  9  10  11  12  13  23  28  29  30  31  32 0
 6-311+G(2d,p)
 ****
 33  34 0
 6-311+G(2d,p)
 ****
 1  2  14  15  16  17  18  19  20  21  22  24  25  26 0
 3-21G
 ****
 27  35  36  37  38  39  40  41  42  43  44  45 0
 3-21G
 ****


