%nproc=1
%NoSave
%Mem=1900MB
#P OB98/GEN NMR

erre ene a

0 1
  C     -115.112      14.783     164.620
  O     -116.158      15.210     163.763
  P     -116.633      14.187     162.617
  C     -115.559      13.218     160.450
  O     -115.496      14.192     161.488
  C     -115.228      13.862     159.106
  O     -116.281      14.766     158.715
  C     -113.953      14.699     159.099
  O     -112.800      13.873     159.073
  C     -114.172      15.529     157.838
  O     -113.860      14.747     156.673
  C     -115.684      15.810     157.897
  N     -117.890      20.361     157.077
  C     -117.712      19.286     156.275
  N     -117.095      18.120     156.558
  C     -116.642      18.119     157.824
  C     -116.730      19.145     158.748
  C     -117.393      20.311     158.336
  N     -117.569      21.408     159.156
  N     -116.128      18.788     159.938
  C     -115.692      17.561     159.736
  N     -115.992      17.106     158.481
  O     -117.848      14.957     161.924
  O     -117.036      12.830     163.113
  H     -113.885      15.351     155.903
  H     -118.533      14.331     161.621
  H     -118.120      19.375     155.271
  H     -115.162      16.961     160.467
  H     -116.159      15.770     156.911
  H     -113.553      16.432     157.806
  H     -113.922      15.354     159.979
  H     -115.163      13.063     158.354
  H     -116.570      12.799     160.402
  H     -117.923      22.254     158.736
  H     -117.077      21.423     160.041
  H     -114.859      12.408     160.680
  P     -111.704      14.106     160.224
  C     -110.311      16.182     160.820
  O     -110.980      15.475     159.792
  O     -110.609      13.000     159.856
  O     -112.235      14.063     161.617
  H     -110.375      13.017     158.912
  H     -109.821      17.056     160.382
  H     -109.553      15.547     161.287
  H     -111.031      16.518     161.572
  H     -114.896      15.553     165.331
  H     -114.237      14.578     164.040
  H     -115.414      13.896     165.136

 3  4  5  6  7  8  9  10  11  12  22  25  29  30  31  32 0
 6-311+G(2d,p)
 ****
 33  36  37 0
 6-311+G(2d,p)
 ****
 1  2  13  14  15  16  17  18  19  20  21  23  24  26 0
 3-21G
 ****
 27  28  34  35  38  39  40  41  42  43  44  45  46  47  48 0
 3-21G
 ****


