%nproc=1
%NoSave
%Mem=1900MB
#P OB98/GEN NMR

erre ene a

0 1
  C      132.353    -372.340      39.949
  O      133.649    -371.741      40.000
  P      133.824    -370.204      39.593
  C      135.382    -369.321      41.460
  O      135.257    -369.683      40.090
  C      136.792    -369.646      41.964
  O      137.127    -371.036      41.731
  C      137.876    -368.861      41.236
  O      137.935    -367.471      41.491
  C      139.121    -369.677      41.534
  O      139.670    -369.353      42.812
  C      138.557    -371.118      41.536
  N      138.884    -371.855      40.317
  C      140.173    -372.372      40.243
  O      141.021    -372.202      41.116
  N      140.471    -373.073      39.103
  C      139.637    -373.270      38.043
  O      139.962    -373.886      37.036
  C      138.296    -372.676      38.168
  C      137.986    -372.006      39.280
  O      132.676    -369.313      39.920
  O      134.027    -370.283      37.999
  H      140.271    -370.080      43.066
  H      133.525    -369.547      37.598
  H      141.398    -373.463      39.037
  H      137.609    -372.806      37.339
  H      137.003    -371.561      39.393
  H      138.957    -371.686      42.386
  H      139.906    -369.501      40.795
  H      137.690    -368.952      40.157
  H      136.827    -369.474      43.041
  H      134.635    -369.850      42.053
  H      135.159    -368.253      41.568
  P      137.160    -366.384      40.606
  C      136.477    -364.533      42.289
  O      137.374    -364.941      41.279
  O      135.787    -366.726      40.142
  O      138.123    -366.284      39.319
  H      137.569    -366.098      38.535
  H      136.759    -363.528      42.619
  H      136.532    -365.209      43.145
  H      135.457    -364.498      41.904
  H      132.421    -373.364      40.252
  H      131.975    -372.288      38.949
  H      131.692    -371.817      40.608

 3  4  5  6  7  8  9  10  11  12  13  23  28  29  30  31  32 0
 6-311+G(2d,p)
 ****
 33  34 0
 6-311+G(2d,p)
 ****
 1  2  14  15  16  17  18  19  20  21  22  24  25  26  27 0
 3-21G
 ****
 35  36  37  38  39  40  41  42  43  44  45 0
 3-21G
 ****


