%nproc=1
%NoSave
%Mem=1900MB
#P OB98/GEN NMR

erre ene a

0 1
  C      323.990    -196.642      67.168
  O      323.804    -197.957      67.645
  H      323.988    -195.954      68.018
  H      323.176    -196.368      66.492
  H      324.949    -196.560      66.648
  P      323.773    -199.129      66.550
  C      322.151    -199.820      64.645
  O      322.399    -198.938      65.732
  C      321.036    -199.268      63.756
  O      319.768    -199.387      64.460
  C      321.217    -197.789      63.377
  O      320.776    -197.602      62.029
  C      320.257    -197.076      64.314
  O      319.867    -195.803      63.815
  C      319.129    -198.098      64.394
  N      315.152    -195.484      66.031
  C      315.748    -195.522      64.788
  N      315.211    -194.740      63.828
  N      316.792    -196.260      64.507
  C      317.211    -197.012      65.553
  C      316.715    -197.056      66.835
  C      315.574    -196.217      67.136
  O      315.018    -196.124      68.226
  N      317.441    -197.921      67.615
  C      318.377    -198.397      66.807
  N      318.269    -197.876      65.544
  O      323.502    -200.447      67.419
  O      324.995    -199.252      65.703
  H      319.235    -195.409      64.454
  H      323.909    -201.229      66.999
  H      314.355    -194.889      66.198
  H      319.140    -199.110      67.083
  H      318.483    -198.080      63.507
  H      320.725    -196.933      65.295
  H      314.387    -194.168      63.962
  H      322.244    -197.435      63.480
  H      315.622    -194.760      62.901
  H      320.959    -199.897      62.860
  H      321.853    -200.795      65.038
  H      323.070    -199.934      64.060
  P      321.895    -197.539      60.885
  C      322.736    -195.812      59.136
  O      321.945    -196.046      60.294
  O      321.239    -198.389      59.692
  O      323.214    -198.113      61.292
  H      321.699    -199.245      59.605
  H      322.671    -194.780      58.862
  H      322.377    -196.418      58.330
  H      323.755    -196.063      59.344

 6  7  8  9  10  11  12  13  14  15  26  29  33  34 0
 6-311+G(2d,p)
 ****
 36  38  39  40  41 0
 6-311+G(2d,p)
 ****
 1  2  3  4  5  16  17  18  19  20  21  22  23  24  25 0
 3-21G
 ****
 27  28  30  31  32  35  37  42  43  44  45  46  47 0
 3-21G
 ****
 48  49 0
 3-21G
 ****


