%nproc=1
%NoSave
%Mem=1900MB
#P OB98/GEN NMR

erre ene a

0 1
  C     -128.429    -225.499     198.959
  O     -127.528    -226.376     199.602
  H     -128.178    -224.474     199.241
  H     -129.449    -225.711     199.286
  H     -128.360    -225.588     197.873
  P     -127.480    -227.911     199.143
  C     -126.849    -227.656     196.654
  O     -126.400    -227.995     197.958
  C     -126.080    -228.442     195.589
  O     -126.855    -228.446     194.357
  C     -124.698    -227.859     195.261
  O     -123.848    -228.950     194.884
  C     -125.008    -226.994     194.053
  O     -123.840    -226.669     193.334
  C     -126.028    -227.876     193.325
  N     -126.810    -227.129     192.340
  C     -126.731    -227.567     191.025
  O     -126.023    -228.512     190.667
  N     -127.460    -226.859     190.111
  C     -128.193    -225.739     190.372
  O     -128.803    -225.123     189.507
  C     -128.202    -225.293     191.773
  C     -127.523    -225.998     192.680
  O     -128.800    -228.534     198.828
  O     -126.735    -228.662     200.345
  H     -123.344    -225.956     193.796
  H     -127.056    -229.580     200.416
  H     -127.422    -227.173     189.152
  H     -128.766    -224.403     192.012
  H     -127.512    -225.697     193.725
  H     -125.522    -228.698     192.804
  H     -125.471    -226.052     194.363
  H     -124.257    -227.298     196.088
  H     -125.998    -229.486     195.915
  H     -126.688    -226.582     196.510
  H     -127.921    -227.867     196.571
  P     -122.952    -229.740     195.952
  C     -124.427    -231.713     196.707
  O     -123.329    -231.299     195.897
  O     -122.977    -229.154     197.330
  O     -121.466    -229.699     195.352
  H     -120.816    -229.739     196.075
  H     -124.582    -232.765     196.587
  H     -125.309    -231.187     196.408
  H     -124.214    -231.498     197.733

 6  7  8  9  10  11  12  13  14  15  16  26  31  32  33  34  35 0
 6-311+G(2d,p)
 ****
 36  37 0
 6-311+G(2d,p)
 ****
 1  2  3  4  5  17  18  19  20  21  22  23  24  25 0
 3-21G
 ****
 27  28  29  30  38  39  40  41  42  43  44  45 0
 3-21G
 ****


