%nproc=1
%NoSave
%Mem=1900MB
#P OB98/GEN NMR

erre ene a

0 1
  C      -45.629     857.095    -267.668
  O      -44.591     857.053    -266.699
  H      -45.763     856.107    -268.123
  H      -46.558     857.390    -267.172
  H      -45.396     857.829    -268.441
  P      -43.129     856.668    -267.236
  C      -41.929     854.370    -267.472
  O      -43.153     855.091    -267.519
  C      -42.185     852.872    -267.586
  O      -42.873     852.398    -266.405
  C      -43.043     852.461    -268.778
  O      -42.297     852.406    -269.987
  C      -43.495     851.071    -268.317
  O      -42.433     850.115    -268.558
  C      -43.698     851.268    -266.817
  N      -48.536     849.619    -267.218
  C      -47.360     849.091    -267.640
  N      -46.107     849.571    -267.468
  C      -46.139     850.729    -266.776
  C      -47.247     851.383    -266.272
  C      -48.499     850.780    -266.515
  N      -49.697     851.362    -266.143
  N      -46.875     852.558    -265.624
  C      -45.567     852.615    -265.768
  N      -45.079     851.528    -266.450
  O      -42.219     856.801    -265.920
  O      -42.617     857.516    -268.353
  H      -42.370     850.011    -269.529
  H      -41.788     857.679    -265.916
  H      -47.431     848.148    -268.172
  H      -44.951     853.420    -265.397
  H      -43.358     850.408    -266.237
  H      -44.374     850.714    -268.863
  H      -43.929     853.105    -268.871
  H      -41.198     852.369    -267.617
  H      -41.411     854.588    -266.526
  H      -50.476     851.124    -266.755
  H      -49.622     852.343    -265.873
  H      -41.290     854.712    -268.299
  P      -43.084     852.662    -271.359
  C      -44.598     851.129    -272.784
  O      -44.178     851.482    -271.475
  O      -41.989     852.267    -272.466
  O      -43.594     854.043    -271.550
  H      -41.865     853.034    -273.078
  H      -45.319     850.341    -272.727
  H      -43.754     850.799    -273.353
  H      -45.038     851.981    -273.259

 6  7  8  9  10  11  12  13  14  15  25  28  32  33  34  35 0
 6-311+G(2d,p)
 ****
 36  39  40 0
 6-311+G(2d,p)
 ****
 1  2  3  4  5  16  17  18  19  20  21  22  23  24 0
 3-21G
 ****
 26  27  29  30  31  37  38  41  42  43  44  45  46  47  48 0
 3-21G
 ****


