%nproc=1
%NoSave
%Mem=1900MB
#P OB98/GEN NMR

erre ene a

0 1
  C      -58.207     -60.288    -122.245
  O      -56.875     -60.742    -122.114
  H      -58.426     -59.595    -121.430
  H      -58.898     -61.133    -122.184
  H      -58.342     -59.768    -123.197
  P      -56.309     -61.686    -123.279
  C      -53.800     -61.019    -123.489
  O      -54.755     -61.922    -122.952
  C      -53.629     -59.826    -122.549
  O      -53.245     -60.320    -121.238
  C      -52.542     -58.845    -123.005
  O      -52.954     -57.513    -122.688
  C      -51.346     -59.230    -122.152
  O      -50.398     -58.185    -121.991
  C      -52.037     -59.636    -120.847
  N      -51.201     -60.495    -120.012
  C      -50.403     -59.877    -119.055
  O      -50.406     -58.671    -118.811
  N      -49.566     -60.709    -118.356
  C      -49.437     -62.056    -118.535
  O      -48.652     -62.744    -117.893
  C      -50.301     -62.649    -119.565
  C      -51.127     -61.854    -120.246
  O      -56.269     -60.717    -124.553
  O      -57.083     -62.935    -123.533
  H      -57.112     -60.764    -125.044
  H      -50.138     -57.873    -122.881
  H      -48.981     -60.278    -117.657
  H      -50.218     -63.714    -119.740
  H      -51.767     -62.259    -121.023
  H      -52.335     -58.744    -120.280
  H      -50.830     -60.088    -122.600
  H      -52.323     -58.919    -124.071
  H      -54.596     -59.321    -122.434
  H      -54.151     -60.663    -124.463
  H      -52.846     -61.538    -123.622
  P      -53.343     -56.549    -123.914
  C      -55.179     -55.438    -122.420
  O      -54.048     -55.265    -123.255
  O      -54.543     -57.362    -124.584
  O      -52.191     -56.258    -124.814
  H      -55.114     -57.815    -123.940
  H      -55.515     -54.484    -122.072
  H      -54.914     -56.050    -121.583
  H      -55.962     -55.911    -122.974

 6  7  8  9  10  11  12  13  14  15  16  27  31  32  33  34  35 0
 6-311+G(2d,p)
 ****
 36  37 0
 6-311+G(2d,p)
 ****
 1  2  3  4  5  17  18  19  20  21  22  23  24  25 0
 3-21G
 ****
 26  28  29  30  38  39  40  41  42  43  44  45 0
 3-21G
 ****


