%nproc=1
%NoSave
%Mem=1900MB
#P OB98/GEN NMR

erre ene a

0 1
  C     -456.404    -499.008     440.287
  O     -457.649    -498.387     440.549
  H     -455.884    -498.433     439.514
  H     -456.563    -500.024     439.910
  H     -455.783    -499.034     441.185
  P     -458.527    -498.908     441.782
  C     -460.480    -499.570     440.225
  O     -460.066    -498.785     441.341
  C     -461.422    -498.766     439.339
  O     -462.640    -498.450     440.059
  C     -460.850    -497.421     438.882
  O     -459.897    -497.606     437.853
  C     -462.123    -496.703     438.466
  O     -462.538    -497.115     437.157
  C     -463.122    -497.192     439.546
  N     -463.317    -496.227     440.627
  C     -463.858    -494.991     440.275
  O     -464.118    -494.683     439.112
  N     -464.054    -494.104     441.305
  C     -463.701    -494.306     442.614
  O     -463.863    -493.456     443.488
  C     -463.112    -495.615     442.927
  C     -462.953    -496.495     441.936
  O     -458.204    -498.303     443.113
  O     -458.279    -500.494     441.777
  H     -462.721    -498.076     437.211
  H     -457.625    -500.726     442.460
  H     -464.433    -493.204     441.071
  H     -462.815    -495.797     443.945
  H     -462.502    -497.467     442.147
  H     -464.104    -497.387     439.095
  H     -462.001    -495.613     438.426
  H     -460.408    -496.887     439.740
  H     -461.691    -499.386     438.472
  H     -461.004    -500.461     440.604
  H     -459.594    -499.889     439.668
  P     -458.768    -496.505     437.593
  C     -459.451    -496.238     435.133
  O     -458.389    -496.559     436.026
  O     -457.588    -496.562     438.509
  O     -459.533    -495.108     437.736
  H     -459.291    -494.676     438.569
  H     -459.100    -496.302     434.124
  H     -459.794    -495.243     435.329
  H     -460.257    -496.927     435.275

 6  7  8  9  10  11  12  13  14  15  16  26  31  32  33  34  35 0
 6-311+G(2d,p)
 ****
 36  37 0
 6-311+G(2d,p)
 ****
 1  2  3  4  5  17  18  19  20  21  22  23  24  25 0
 3-21G
 ****
 27  28  29  30  38  39  40  41  42  43  44  45 0
 3-21G
 ****


