%nproc=1
%NoSave
%Mem=1900MB
#P OB98/GEN NMR

erre ene a

0 1
  C       -6.987     -70.055     180.772
  O       -5.708     -69.576     180.418
  P       -5.529     -68.252     179.538
  C       -6.283     -69.420     177.369
  O       -5.228     -68.733     178.033
  C       -5.904     -69.688     175.907
  O       -7.046     -70.307     175.236
  C       -5.542     -68.403     175.137
  O       -4.284     -68.453     174.464
  C       -6.754     -68.196     174.243
  O       -6.504     -67.377     173.116
  C       -7.187     -69.639     173.968
  N       -8.547     -69.725     173.441
  C       -8.869     -70.856     172.695
  O       -8.093     -71.778     172.463
  N      -10.122     -70.877     172.151
  C      -11.025     -69.856     172.179
  O      -12.093     -69.905     171.584
  C      -10.614     -68.672     172.948
  C       -9.425     -68.666     173.555
  O       -4.553     -67.257     180.070
  O       -7.025     -67.694     179.414
  H       -7.363     -67.149     172.714
  H       -7.655     -68.303     178.992
  H      -10.368     -71.689     171.608
  H      -11.306     -67.842     172.978
  H       -9.096     -67.808     174.129
  H       -6.514     -70.131     173.265
  H       -7.526     -67.691     174.837
  H       -5.444     -67.550     175.820
  H       -5.073     -70.399     175.903
  H       -7.181     -68.798     177.397
  H       -6.510     -70.352     177.897
  P       -3.328     -67.195     174.210
  C       -3.583     -67.581     171.652
  O       -2.716     -67.322     172.737
  O       -2.330     -66.927     175.287
  O       -4.351     -65.970     174.073
  H       -3.917     -65.148     174.370
  H       -3.026     -68.120     170.881
  H       -3.929     -66.633     171.233
  H       -4.442     -68.184     171.957
  H       -6.885     -70.945     181.357
  H       -7.544     -70.273     179.885
  H       -7.502     -69.310     181.342

 3  4  5  6  7  8  9  10  11  12  13  23  28  29  30  31  32 0
 6-311+G(2d,p)
 ****
 33  34 0
 6-311+G(2d,p)
 ****
 1  2  14  15  16  17  18  19  20  21  22  24  25  26  27 0
 3-21G
 ****
 35  36  37  38  39  40  41  42  43  44  45 0
 3-21G
 ****


