%nproc=1
%NoSave
%Mem=1900MB
#P OB98/GEN NMR

erre ene a

0 1
  C     -379.934     855.039    -588.191
  O     -379.747     855.579    -586.898
  P     -380.993     855.800    -585.894
  C     -381.409     858.234    -586.695
  O     -381.032     857.383    -585.623
  C     -381.215     859.705    -586.302
  O     -382.250     860.056    -585.333
  C     -379.858     860.039    -585.671
  O     -379.496     861.354    -586.094
  C     -380.162     859.998    -584.184
  O     -379.210     860.736    -583.432
  C     -381.578     860.580    -584.160
  N     -382.305     860.234    -582.936
  C     -382.562     861.254    -582.025
  O     -382.160     862.400    -582.237
  N     -383.258     860.967    -580.895
  C     -383.621     859.734    -580.649
  N     -384.377     859.508    -579.532
  C     -383.283     858.603    -581.534
  C     -382.648     858.941    -582.670
  O     -380.970     854.948    -584.674
  O     -382.277     855.594    -586.828
  H     -379.547     860.831    -582.519
  H     -382.552     854.650    -586.911
  H     -383.572     857.592    -581.266
  H     -382.392     858.168    -583.386
  H     -381.543     861.677    -584.293
  H     -380.156     858.957    -583.828
  H     -379.080     859.327    -585.981
  H     -381.394     860.332    -587.195
  H     -384.736     860.318    -579.052
  H     -382.460     858.057    -586.935
  H     -384.943     858.659    -579.442
  H     -380.825     857.990    -587.598
  P     -378.007     861.603    -586.656
  C     -377.481     863.297    -584.775
  O     -377.521     863.051    -586.145
  O     -378.315     861.862    -588.224
  O     -377.047     860.480    -586.520
  H     -377.522     861.646    -588.738
  H     -377.139     864.312    -584.619
  H     -376.801     862.620    -584.267
  H     -378.483     863.200    -584.340
  H     -378.990     854.975    -588.691
  H     -380.591     855.672    -588.750
  H     -380.362     854.062    -588.111

 3  4  5  6  7  8  9  10  11  12  13  23  27  28  29  30  32 0
 6-311+G(2d,p)
 ****
 34  35 0
 6-311+G(2d,p)
 ****
 1  2  14  15  16  17  18  19  20  21  22  24  25  26 0
 3-21G
 ****
 31  33  36  37  38  39  40  41  42  43  44  45  46 0
 3-21G
 ****


