%nproc=1
%NoSave
%Mem=1900MB
#P OB98/GEN NMR

erre ene a

0 1
  C      366.548    -328.251      96.517
  O      366.023    -328.699      95.284
  P      365.484    -327.653      94.195
  C      363.568    -325.928      94.123
  O      364.180    -326.986      94.857
  C      362.045    -326.026      94.199
  O      361.627    -326.429      95.521
  C      361.325    -324.713      93.917
  O      361.303    -324.447      92.529
  C      359.959    -324.990      94.534
  O      359.123    -325.736      93.629
  C      360.326    -325.853      95.764
  N      360.298    -325.087      97.005
  C      359.065    -325.050      97.666
  O      358.079    -325.610      97.185
  N      358.969    -324.332      98.835
  C      360.003    -323.697      99.286
  N      359.842    -322.993     100.444
  C      361.311    -323.686      98.599
  C      361.385    -324.393      97.477
  O      365.295    -328.199      92.820
  O      366.565    -326.469      94.263
  H      358.905    -325.122      92.894
  H      367.413    -326.731      93.829
  H      362.141    -323.126      99.008
  H      362.305    -324.436      96.907
  H      359.628    -326.695      95.862
  H      359.425    -324.072      94.783
  H      361.809    -323.899      94.465
  H      361.719    -326.800      93.489
  H      358.921    -323.003     100.864
  H      363.884    -326.006      93.080
  H      360.571    -322.432     100.861
  H      363.916    -324.963      94.517
  P      361.451    -322.939      92.004
  C      360.063    -320.780      92.032
  O      360.131    -322.140      92.420
  O      361.864    -322.797      90.575
  O      362.568    -322.318      92.972
  H      363.201    -321.806      92.441
  H      359.022    -320.457      92.072
  H      360.443    -320.648      91.014
  H      360.652    -320.175      92.726
  H      366.852    -329.093      97.102
  H      365.797    -327.702      97.046
  H      367.392    -327.618      96.337

 3  4  5  6  7  8  9  10  11  12  13  23  27  28  29  30  32 0
 6-311+G(2d,p)
 ****
 34  35 0
 6-311+G(2d,p)
 ****
 1  2  14  15  16  17  18  19  20  21  22  24  25  26 0
 3-21G
 ****
 31  33  36  37  38  39  40  41  42  43  44  45  46 0
 3-21G
 ****


