%nproc=1
%NoSave
%Mem=1900MB
#P OB98/GEN NMR

erre ene a

0 1
  C      715.938      50.165    1488.048
  O      715.498      48.781    1488.014
  P      714.523      48.202    1486.857
  C      712.296      48.584    1488.114
  O      713.213      47.625    1487.520
  C      710.844      48.267    1487.780
  O      710.529      48.670    1486.414
  C      710.461      46.783    1487.873
  O      710.328      46.347    1489.220
  C      709.174      46.756    1487.035
  O      708.037      47.154    1487.843
  C      709.475      47.802    1485.950
  N      709.838      47.179    1484.664
  C      708.876      46.332    1484.108
  O      707.829      46.098    1484.694
  N      709.182      45.754    1482.869
  C      710.343      45.947    1482.317
  N      710.545      45.367    1481.108
  C      711.413      46.762    1482.926
  C      711.091      47.372    1484.084
  O      715.217      47.245    1485.909
  O      714.005      49.496    1486.052
  H      707.279      47.185    1487.248
  H      713.862      49.250    1485.129
  H      712.368      46.900    1482.431
  H      711.816      47.987    1484.623
  H      708.604      48.426    1485.773
  H      708.948      45.760    1486.640
  H      711.233      46.184    1487.361
  H      710.208      48.845    1488.469
  H      709.790      44.810    1480.701
  H      712.549      49.587    1487.727
  H      711.411      45.473    1480.576
  H      712.452      48.581    1489.204
  P      711.557      45.654    1489.962
  C      711.335      43.433    1488.721
  O      711.294      44.055    1489.965
  O      711.946      46.218    1491.297
  O      712.789      45.800    1488.883
  H      713.611      45.864    1489.383
  H      711.489      42.348    1488.862
  H      712.076      43.824    1488.041
  H      710.322      43.555    1488.217
  H      716.571      50.317    1488.897
  H      715.086      50.808    1488.119
  H      716.481      50.389    1487.153

 3  4  5  6  7  8  9  10  11  12  13  23  27  28  29  30  32 0
 6-311+G(2d,p)
 ****
 34  35 0
 6-311+G(2d,p)
 ****
 1  2  14  15  16  17  18  19  20  21  22  24  25  26 0
 3-21G
 ****
 31  33  36  37  38  39  40  41  42  43  44  45  46 0
 3-21G
 ****


