%nproc=1
%NoSave
%Mem=1900MB
#P OB98/GEN NMR

erre ene a

0 1
  C      147.230    -183.448     -61.937
  O      146.537    -184.441     -61.210
  H      146.638    -183.175     -62.815
  H      148.198    -183.834     -62.272
  H      147.379    -182.556     -61.321
  P      147.178    -184.902     -59.816
  C      148.899    -186.601     -60.791
  O      148.686    -185.357     -60.141
  C      150.295    -186.632     -61.412
  O      150.476    -187.908     -62.082
  C      150.521    -185.530     -62.457
  O      151.869    -185.068     -62.368
  C      150.309    -186.254     -63.778
  O      150.950    -185.631     -64.884
  C      150.876    -187.640     -63.442
  N      150.385    -188.680     -64.342
  C      151.313    -189.301     -65.169
  O      152.526    -189.094     -65.146
  N      150.798    -190.205     -66.062
  C      149.481    -190.524     -66.218
  O      149.074    -191.327     -67.052
  C      148.548    -189.822     -65.323
  C      149.034    -188.948     -64.441
  O      146.440    -186.294     -59.510
  O      147.057    -183.933     -58.691
  H      145.628    -186.140     -58.986
  H      150.910    -186.250     -65.641
  H      151.457    -190.670     -66.670
  H      147.492    -190.044     -65.428
  H      148.371    -188.410     -63.775
  H      151.972    -187.616     -63.464
  H      149.239    -186.322     -64.002
  H      149.832    -184.689     -62.342
  H      151.047    -186.576     -60.610
  H      148.149    -186.724     -61.579
  H      148.789    -187.414     -60.063
  P      152.107    -183.479     -62.358
  C      153.368    -183.357     -64.647
  O      152.204    -183.039     -63.900
  O      153.608    -183.383     -61.821
  O      151.089    -182.744     -61.542
  H      154.182    -184.100     -62.145
  H      153.261    -182.991     -65.647
  H      153.499    -184.419     -64.668
  H      154.221    -182.901     -64.189

 6  7  8  9  10  11  12  13  14  15  16  27  31  32  33  34  35 0
 6-311+G(2d,p)
 ****
 36  37 0
 6-311+G(2d,p)
 ****
 1  2  3  4  5  17  18  19  20  21  22  23  24  25 0
 3-21G
 ****
 26  28  29  30  38  39  40  41  42  43  44  45 0
 3-21G
 ****


