%nproc=1
%NoSave
%Mem=1900MB
#P OB98/GEN NMR

erre ene a

0 1
  C      275.139    -804.337     158.239
  O      274.475    -805.579     158.468
  P      273.242    -805.579     159.496
  C      271.464    -807.392     158.830
  O      272.646    -807.065     159.540
  C      271.798    -807.969     157.438
  O      272.528    -809.209     157.623
  C      270.595    -808.325     156.578
  O      271.017    -808.432     155.211
  C      270.238    -809.700     157.103
  O      269.412    -810.414     156.190
  C      271.627    -810.318     157.376
  N      271.645    -811.249     158.527
  C      271.651    -812.623     158.273
  O      271.632    -813.110     157.134
  N      271.626    -813.435     159.365
  C      271.647    -813.039     160.674
  O      271.540    -813.812     161.605
  C      271.786    -811.594     160.881
  C      271.773    -810.786     159.825
  O      272.121    -804.725     158.742
  O      273.580    -805.008     160.832
  H      269.873    -810.390     155.319
  H      272.053    -803.838     159.135
  H      271.567    -814.432     159.192
  H      271.874    -811.233     161.902
  H      271.856    -809.703     159.967
  H      271.989    -810.878     156.506
  H      269.678    -809.608     158.038
  H      269.755    -807.629     156.657
  H      272.456    -807.270     156.915
  H      270.833    -806.510     158.731
  H      270.885    -808.128     159.396
  P      270.109    -807.735     154.083
  C      271.907    -807.507     152.262
  O      270.732    -808.178     152.681
  O      269.868    -806.271     154.261
  O      268.750    -808.582     154.161
  H      268.026    -808.074     153.735
  H      272.492    -808.185     151.633
  H      272.520    -807.201     153.118
  H      271.632    -806.627     151.683
  H      275.934    -804.482     157.538
  H      275.539    -803.971     159.162
  H      274.442    -803.627     157.846

 3  4  5  6  7  8  9  10  11  12  13  23  28  29  30  31  32 0
 6-311+G(2d,p)
 ****
 33  34 0
 6-311+G(2d,p)
 ****
 1  2  14  15  16  17  18  19  20  21  22  24  25  26  27 0
 3-21G
 ****
 35  36  37  38  39  40  41  42  43  44  45 0
 3-21G
 ****


