%nproc=1
%NoSave
%Mem=1900MB
#P OB98/GEN NMR

erre ene a

0 1
  C     -938.815     174.076    -576.791
  O     -938.081     175.023    -577.537
  H     -939.688     173.770    -577.379
  H     -939.167     174.520    -575.856
  H     -938.208     173.193    -576.581
  P     -936.694     175.565    -576.943
  C     -935.045     174.691    -578.717
  O     -935.558     174.522    -577.406
  C     -935.440     173.507    -579.599
  O     -936.886     173.487    -579.748
  C     -934.828     173.554    -581.001
  O     -934.483     172.223    -581.395
  C     -935.963     174.063    -581.868
  O     -935.841     173.642    -583.225
  C     -937.182     173.482    -581.156
  N     -940.981     174.153    -584.421
  C     -939.970     173.211    -584.407
  N     -939.947     172.331    -585.432
  N     -939.052     173.145    -583.475
  C     -939.203     174.079    -582.508
  C     -940.153     175.066    -582.410
  C     -941.154     175.138    -583.457
  O     -942.067     175.959    -583.526
  N     -939.950     175.841    -581.294
  C     -938.881     175.323    -580.720
  N     -938.385     174.261    -581.425
  O     -936.699     175.868    -575.481
  O     -936.375     176.864    -577.819
  H     -936.514     174.132    -583.740
  H     -936.619     177.673    -577.335
  H     -941.649     174.171    -585.168
  H     -938.428     175.685    -579.811
  H     -937.397     172.454    -581.464
  H     -935.977     175.156    -581.848
  H     -940.625     172.312    -586.173
  H     -933.942     174.196    -581.058
  H     -939.230     171.609    -585.430
  H     -935.158     172.581    -579.082
  H     -933.957     174.761    -578.658
  H     -935.439     175.622    -579.143
  P     -933.163     171.552    -580.777
  C     -933.699     169.232    -579.789
  O     -933.600     170.631    -579.536
  O     -932.026     172.482    -580.512
  O     -932.772     170.462    -581.888
  H     -931.800     170.339    -581.883
  H     -933.995     168.728    -578.893
  H     -932.749     168.860    -580.110
  H     -934.427     169.058    -580.554

 6  7  8  9  10  11  12  13  14  15  26  29  33  34 0
 6-311+G(2d,p)
 ****
 36  38  39  40  41 0
 6-311+G(2d,p)
 ****
 1  2  3  4  5  16  17  18  19  20  21  22  23  24  25 0
 3-21G
 ****
 27  28  30  31  32  35  37  42  43  44  45  46  47 0
 3-21G
 ****
 48  49 0
 3-21G
 ****


