%nproc=1
%NoSave
%Mem=1900MB
#P OB98/GEN NMR

erre ene a

0 1
  C       61.166     -18.493    -899.046
  O       62.215     -18.207    -898.106
  P       61.810     -17.841    -896.606
  C       63.511     -19.004    -894.936
  O       62.267     -19.025    -895.626
  C       64.464     -20.030    -895.576
  O       64.663     -19.730    -896.956
  C       65.826     -20.075    -894.916
  O       65.868     -20.961    -893.786
  C       66.719     -20.527    -896.056
  O       66.591     -21.962    -896.256
  C       66.093     -19.763    -897.256
  N       66.555     -18.378    -897.506
  C       66.886     -17.987    -898.816
  O       66.776     -18.707    -899.796
  N       67.274     -16.678    -898.966
  C       67.241     -15.700    -898.016
  O       67.560     -14.539    -898.216
  C       66.770     -16.142    -896.686
  C       66.479     -17.415    -896.516
  O       60.209     -17.958    -896.606
  O       62.269     -16.502    -896.156
  H       65.653     -22.125    -896.466
  H       59.798     -17.089    -896.416
  H       67.556     -16.388    -899.896
  H       66.693     -15.400    -895.906
  H       66.115     -17.764    -895.526
  H       66.239     -20.320    -898.186
  H       67.781     -20.364    -895.856
  H       66.156     -19.060    -894.636
  H       63.984     -21.036    -895.506
  H       63.376     -19.238    -893.876
  H       63.937     -18.008    -894.976
  P       65.421     -20.408    -892.356
  C       63.199     -21.699    -892.196
  O       63.820     -20.424    -892.366
  O       66.060     -19.119    -891.916
  O       65.776     -21.620    -891.376
  H       66.665     -21.481    -890.956
  H       62.124     -21.561    -892.066
  H       63.618     -22.205    -891.316
  H       63.381     -22.307    -893.096
  H       61.594     -18.718    -900.000
  H       60.525     -17.641    -899.135
  H       60.598     -19.332    -898.702

 3  4  5  6  7  8  9  10  11  12  13  23  28  29  30  31  32 0
 6-311+G(2d,p)
 ****
 33  34 0
 6-311+G(2d,p)
 ****
 1  2  14  15  16  17  18  19  20  21  22  24  25  26  27 0
 3-21G
 ****
 35  36  37  38  39  40  41  42  43  44  45 0
 3-21G
 ****


