%nproc=1
%NoSave
%Mem=1900MB
#P OB98/GEN NMR

erre ene a

0 1
  C     -297.654     183.212    -122.988
  O     -297.165     182.731    -124.224
  P     -296.743     181.187    -124.311
  C     -294.157     181.498    -124.462
  O     -295.268     181.061    -123.692
  C     -292.911     180.697    -124.068
  O     -292.642     180.843    -122.659
  C     -293.054     179.197    -124.305
  O     -292.871     178.865    -125.669
  C     -291.971     178.640    -123.390
  O     -290.685     178.675    -124.037
  C     -292.016     179.625    -122.205
  N     -292.691     179.072    -121.034
  C     -292.225     177.838    -120.588
  O     -291.306     177.229    -121.146
  N     -292.866     177.314    -119.503
  C     -293.944     177.852    -118.866
  O     -294.515     177.308    -117.931
  C     -294.418     179.144    -119.400
  C     -293.783     179.681    -120.449
  O     -296.520     180.934    -125.877
  O     -297.737     180.238    -123.730
  H     -290.743     178.069    -124.804
  H     -296.807     180.029    -126.110
  H     -292.524     176.432    -119.145
  H     -295.271     179.604    -118.922
  H     -294.127     180.622    -120.866
  H     -290.992     179.907    -121.910
  H     -292.161     177.598    -123.111
  H     -294.035     178.855    -123.946
  H     -292.052     181.092    -124.628
  H     -293.984     182.560    -124.278
  H     -294.380     181.362    -125.526
  P     -293.993     177.942    -126.353
  C     -292.951     175.625    -125.715
  O     -293.977     176.577    -125.506
  O     -293.280     177.582    -127.743
  O     -295.312     178.625    -126.483
  H     -292.314     177.524    -127.652
  H     -291.995     176.111    -125.933
  H     -293.227     174.973    -126.545
  H     -292.844     175.024    -124.808
  H     -297.894     184.251    -123.079
  H     -296.906     183.083    -122.234
  H     -298.533     182.666    -122.715

 3  4  5  6  7  8  9  10  11  12  13  23  28  29  30  31  32 0
 6-311+G(2d,p)
 ****
 33  34 0
 6-311+G(2d,p)
 ****
 1  2  14  15  16  17  18  19  20  21  22  24  25  26 0
 3-21G
 ****
 27  35  36  37  38  39  40  41  42  43  44  45 0
 3-21G
 ****


