%nproc=1
%NoSave
%Mem=1900MB
#P OB98/GEN NMR

erre ene a

0 1
  C     -575.263     220.832     -86.275
  O     -576.325     219.898     -86.184
  P     -576.031     218.318     -86.203
  C     -577.277     218.137     -83.960
  O     -576.088     217.824     -84.678
  C     -577.899     216.874     -83.362
  O     -578.894     217.261     -82.385
  C     -578.589     215.992     -84.398
  O     -578.396     214.623     -84.040
  C     -580.066     216.322     -84.246
  O     -580.893     215.223     -84.670
  C     -580.145     216.652     -82.757
  N     -585.215     217.453     -82.885
  C     -584.467     216.391     -83.250
  N     -583.124     216.258     -83.211
  C     -582.554     217.351     -82.680
  C     -583.190     218.512     -82.266
  C     -584.588     218.542     -82.386
  N     -585.354     219.626     -81.999
  N     -582.268     219.438     -81.807
  C     -581.104     218.837     -81.930
  N     -581.224     217.574     -82.448
  O     -574.799     217.919     -86.938
  O     -577.347     217.674     -86.843
  H     -580.632     215.008     -85.591
  H     -577.105     216.926     -87.425
  H     -585.021     215.535     -83.622
  H     -580.153     219.274     -81.678
  H     -580.280     215.745     -82.145
  H     -580.317     217.185     -84.867
  H     -578.228     216.168     -85.418
  H     -577.119     216.319     -82.835
  H     -577.986     218.597     -84.658
  H     -586.352     219.507     -82.007
  H     -584.907     220.362     -81.467
  H     -577.049     218.863     -83.176
  P     -578.266     213.587     -85.271
  C     -575.783     213.174     -84.591
  O     -576.702     213.545     -85.599
  O     -579.192     213.920     -86.390
  O     -578.577     212.194     -84.537
  H     -578.371     212.239     -83.573
  H     -574.771     213.242     -85.000
  H     -575.965     212.137     -84.287
  H     -575.871     213.838     -83.728
  H     -575.659     221.826     -86.246
  H     -574.736     220.685     -87.195
  H     -574.592     220.691     -85.453

 3  4  5  6  7  8  9  10  11  12  22  25  29  30  31  32 0
 6-311+G(2d,p)
 ****
 33  36  37 0
 6-311+G(2d,p)
 ****
 1  2  13  14  15  16  17  18  19  20  21  23  24  26 0
 3-21G
 ****
 27  28  34  35  38  39  40  41  42  43  44  45  46  47  48 0
 3-21G
 ****


