%nproc=1
%NoSave
%Mem=1900MB
#P OB98/GEN NMR

erre ene a

0 1
  C     1075.043     925.283     -57.011
  O     1075.936     924.300     -57.487
  H     1075.523     926.268     -57.096
  H     1074.813     925.104     -55.958
  H     1074.119     925.295     -57.598
  P     1075.416     922.792     -57.629
  C     1075.447     923.020     -60.200
  O     1074.680     922.683     -59.050
  C     1075.472     921.831     -61.176
  O     1074.134     921.291     -61.323
  C     1075.938     922.194     -62.579
  O     1077.342     922.371     -62.639
  C     1075.404     921.006     -63.361
  O     1076.297     919.882     -63.260
  C     1074.075     920.704     -62.650
  N     1072.920     921.227     -63.389
  C     1072.531     920.503     -64.513
  O     1073.113     919.469     -64.879
  N     1071.510     921.038     -65.237
  C     1070.948     922.263     -65.029
  O     1070.205     922.806     -65.852
  C     1071.346     922.959     -63.799
  C     1072.311     922.422     -63.054
  O     1074.644     922.260     -56.471
  O     1076.769     921.949     -57.864
  H     1077.018     921.508     -57.032
  H     1076.365     919.679     -62.305
  H     1071.252     920.537     -66.089
  H     1070.870     923.914     -63.569
  H     1072.656     922.924     -62.164
  H     1073.939     919.625     -62.514
  H     1075.283     921.250     -64.428
  H     1075.422     923.104     -62.910
  H     1076.115     921.041     -60.740
  H     1076.473     923.236     -59.882
  H     1075.013     923.892     -60.679
  P     1077.957     923.620     -63.435
  C     1078.192     925.157     -61.384
  O     1077.569     924.956     -62.653
  O     1077.668     923.641     -64.900
  O     1079.538     923.501     -63.157
  H     1080.007     923.551     -64.025
  H     1077.853     926.080     -60.963
  H     1079.254     925.190     -61.509
  H     1077.935     924.351     -60.729

 6  7  8  9  10  11  12  13  14  15  16  27  31  32  33  34  35 0
 6-311+G(2d,p)
 ****
 36  37 0
 6-311+G(2d,p)
 ****
 1  2  3  4  5  17  18  19  20  21  22  23  24  25 0
 3-21G
 ****
 26  28  29  30  38  39  40  41  42  43  44  45 0
 3-21G
 ****


