%nproc=1
%NoSave
%Mem=1900MB
#P OB98/GEN NMR

erre ene a

0 1
  C      189.280     231.421      93.112
  O      189.170     230.824      91.836
  P      188.038     229.726      91.552
  C      187.120     227.706      92.845
  O      188.265     228.499      92.558
  C      187.452     226.645      93.890
  O      187.826     227.259      95.146
  C      186.292     225.724      94.233
  O      186.025     224.799      93.195
  C      186.783     225.107      95.536
  O      187.706     224.039      95.280
  C      187.513     226.303      96.188
  N      186.734     226.914      97.254
  C      186.615     226.171      98.433
  O      187.082     225.035      98.503
  N      185.961     226.736      99.499
  C      185.369     227.881      99.359
  N      184.790     228.418     100.466
  C      185.335     228.621      98.081
  C      186.050     228.096      97.088
  O      187.871     229.340      90.120
  O      186.698     230.399      92.116
  H      186.003     230.338      91.431
  H      188.122     223.821      96.138
  H      184.772     229.539      97.999
  H      186.100     228.581      96.118
  H      188.478     225.980      96.596
  H      185.966     224.695      96.136
  H      185.394     226.322      94.429
  H      188.309     226.064      93.525
  H      184.849     227.891     101.328
  H      186.789     227.222      91.922
  H      184.597     229.413     100.552
  H      186.312     228.355      93.200
  P      184.607     224.049      93.242
  C      183.314     222.821      95.120
  O      184.573     223.168      94.577
  O      184.728     222.961      92.072
  O      183.425     224.938      93.036
  H      183.864     222.858      91.629
  H      183.444     221.964      95.787
  H      182.599     222.554      94.335
  H      182.923     223.663      95.700
  H      190.087     232.123      93.109
  H      189.468     230.664      93.845
  H      188.368     231.927      93.349

 3  4  5  6  7  8  9  10  11  12  13  24  27  28  29  30  32 0
 6-311+G(2d,p)
 ****
 34  35 0
 6-311+G(2d,p)
 ****
 1  2  14  15  16  17  18  19  20  21  22  23  25  26 0
 3-21G
 ****
 31  33  36  37  38  39  40  41  42  43  44  45  46 0
 3-21G
 ****


