%nproc=1
%NoSave
%Mem=1900MB
#P OB98/GEN NMR

erre ene a

0 1
  C     -280.630     277.259     -58.387
  O     -280.097     277.639     -59.644
  P     -280.457     276.758     -60.928
  C     -278.696     274.864     -60.619
  O     -280.063     275.234     -60.594
  C     -278.501     273.565     -61.400
  O     -278.840     272.429     -60.536
  C     -279.374     273.455     -62.660
  O     -278.626     272.718     -63.639
  C     -280.550     272.619     -62.177
  O     -281.267     272.001     -63.237
  C     -279.812     271.638     -61.250
  N     -280.718     270.938     -60.333
  C     -280.934     269.585     -60.567
  O     -280.423     268.953     -61.481
  N     -281.835     268.973     -59.721
  C     -282.585     269.595     -58.758
  O     -283.459     269.012     -58.123
  C     -282.310     271.026     -58.559
  C     -281.401     271.627     -59.340
  O     -279.357     277.206     -62.008
  O     -281.846     276.939     -61.442
  H     -281.684     272.715     -63.757
  H     -279.746     277.847     -62.635
  H     -282.000     267.992     -59.863
  H     -282.877     271.542     -57.796
  H     -281.197     272.686     -59.240
  H     -279.250     270.901     -61.843
  H     -281.240     273.248     -61.616
  H     -279.684     274.421     -63.062
  H     -277.442     273.462     -61.660
  H     -278.347     274.728     -59.592
  H     -278.101     275.669     -61.066
  P     -278.737     273.186     -65.176
  C     -280.970     271.878     -65.556
  O     -280.291     273.113     -65.565
  O     -278.094     271.913     -65.917
  O     -278.031     274.471     -65.466
  H     -278.398     271.071     -65.551
  H     -280.605     271.226     -64.760
  H     -280.841     271.381     -66.517
  H     -282.033     272.063     -65.389
  H     -280.298     277.945     -57.636
  H     -280.296     276.273     -58.141
  H     -281.699     277.272     -58.434

 3  4  5  6  7  8  9  10  11  12  13  23  28  29  30  31  32 0
 6-311+G(2d,p)
 ****
 33  34 0
 6-311+G(2d,p)
 ****
 1  2  14  15  16  17  18  19  20  21  22  24  25  26 0
 3-21G
 ****
 27  35  36  37  38  39  40  41  42  43  44  45 0
 3-21G
 ****


