%nproc=1
%NoSave
%Mem=1900MB
#P OB98/GEN NMR

erre ene a

0 1
  C      -79.100      46.020      -2.818
  O      -79.706      47.295      -2.782
  H      -78.220      46.067      -3.464
  H      -79.798      45.290      -3.236
  H      -78.784      45.704      -1.821
  P      -80.848      47.583      -1.695
  C      -80.755      50.143      -1.373
  O      -81.403      49.054      -2.017
  C      -79.534      50.581      -2.184
  O      -79.965      50.837      -3.556
  C      -78.877      51.871      -1.653
  O      -77.465      51.788      -1.874
  C      -79.485      52.918      -2.566
  O      -78.729      54.103      -2.588
  C      -79.524      52.163      -3.893
  N      -80.404      52.818      -4.856
  C      -79.792      53.509      -5.896
  O      -78.573      53.601      -6.031
  N      -80.632      54.167      -6.752
  C      -81.982      54.290      -6.608
  O      -82.677      54.958      -7.361
  C      -82.569      53.581      -5.457
  C      -81.767      52.883      -4.652
  O      -80.465      47.360      -0.269
  O      -82.070      46.655      -2.151
  H      -79.101      54.724      -3.240
  H      -82.676      46.500      -1.401
  H      -80.205      54.666      -7.518
  H      -83.635      53.672      -5.305
  H      -82.160      52.365      -3.784
  H      -78.518      52.079      -4.324
  H      -80.495      53.170      -2.229
  H      -79.080      52.055      -0.595
  H      -78.813      49.757      -2.222
  H      -80.443      49.814      -0.376
  H      -81.459      50.976      -1.271
  P      -76.421      51.720      -0.657
  C      -74.254      50.531      -1.355
  O      -74.910      51.787      -1.206
  O      -76.668      50.598       0.300
  O      -76.600      53.124       0.094
  H      -76.650      52.968       1.056
  H      -73.262      50.688      -1.723
  H      -74.799      49.924      -2.047
  H      -74.208      50.038      -0.407

 6  7  8  9  10  11  12  13  14  15  16  26  31  32  33  34  35 0
 6-311+G(2d,p)
 ****
 36  37 0
 6-311+G(2d,p)
 ****
 1  2  3  4  5  17  18  19  20  21  22  23  24  25 0
 3-21G
 ****
 27  28  29  30  38  39  40  41  42  43  44  45 0
 3-21G
 ****


