%nproc=1
%NoSave
%Mem=1900MB
#P OB98/GEN NMR

erre ene a

0 1
  C       47.042     -26.507      27.858
  O       47.709     -26.118      29.063
  P       49.314     -26.084      29.039
  C       49.312     -24.051      30.691
  O       49.750     -25.372      30.407
  C       50.106     -23.477      31.863
  O       49.699     -24.097      33.107
  C       51.607     -23.705      31.769
  O       52.202     -22.846      30.810
  C       52.028     -23.449      33.209
  O       52.134     -22.038      33.456
  C       50.838     -24.034      33.999
  N       51.126     -25.335      34.588
  C       51.959     -25.324      35.703
  O       52.452     -24.296      36.164
  N       52.226     -26.545      36.261
  C       51.774     -27.749      35.806
  O       52.038     -28.811      36.354
  C       50.940     -27.701      34.596
  C       50.658     -26.516      34.049
  O       49.582     -24.983      27.913
  O       49.921     -27.421      28.778
  H       48.921     -24.270      27.912
  H       52.760     -21.688      32.792
  H       52.817     -26.557      37.078
  H       50.586     -28.641      34.191
  H       50.046     -26.461      33.154
  H       50.551     -23.352      34.809
  H       52.998     -23.897      33.448
  H       51.808     -24.750      31.503
  H       49.890     -22.403      31.927
  H       48.248     -24.058      30.947
  H       49.432     -23.437      29.793
  P       53.234     -23.516      29.776
  C       52.470     -21.910      27.861
  O       53.524     -22.417      28.648
  O       52.290     -24.583      29.045
  O       54.440     -24.105      30.430
  H       51.421     -24.223      28.809
  H       52.786     -20.961      27.420
  H       51.571     -21.737      28.458
  H       52.243     -22.614      27.056
  H       45.984     -26.486      28.014
  H       47.343     -27.497      27.587
  H       47.300     -25.828      27.072

 3  4  5  6  7  8  9  10  11  12  13  24  28  29  30  31  32 0
 6-311+G(2d,p)
 ****
 33  34 0
 6-311+G(2d,p)
 ****
 1  2  14  15  16  17  18  19  20  21  22  23  25  26  27 0
 3-21G
 ****
 35  36  37  38  39  40  41  42  43  44  45 0
 3-21G
 ****


