%nproc=1
%NoSave
%Mem=1900MB
#P OB98/GEN NMR

erre ene a

0 1
  C      -48.039     143.305     104.591
  O      -47.552     143.261     105.918
  H      -49.123     143.161     104.613
  H      -47.592     142.515     103.985
  H      -47.826     144.280     104.147
  P      -45.964     143.169     106.137
  C      -45.937     144.692     108.219
  O      -45.740     143.372     107.717
  C      -45.932     144.709     109.747
  O      -47.085     144.013     110.269
  C      -44.738     144.007     110.373
  O      -43.499     144.639     110.149
  C      -45.216     143.791     111.801
  O      -45.039     144.949     112.616
  C      -46.725     143.524     111.581
  N      -47.069     142.116     111.744
  C      -48.192     141.849     112.517
  O      -48.865     142.722     113.064
  N      -48.508     140.527     112.673
  C      -47.796     139.472     112.182
  O      -48.121     138.306     112.375
  C      -46.596     139.815     111.405
  C      -46.291     141.103     111.222
  O      -45.139     144.086     105.284
  O      -45.637     141.620     105.922
  H      -44.077     145.082     112.715
  H      -44.668     141.475     105.788
  H      -49.328     140.312     113.217
  H      -46.000     139.004     111.011
  H      -45.410     141.382     110.649
  H      -47.322     144.103     112.300
  H      -44.692     142.967     112.290
  H      -44.651     143.010     109.923
  H      -45.999     145.752     110.075
  H      -46.909     145.044     107.857
  H      -45.154     145.351     107.831
  P      -42.337     144.018     109.253
  C      -41.804     146.247     107.996
  O      -41.334     145.195     108.829
  O      -42.751     143.036     108.205
  O      -41.467     143.218     110.355
  H      -41.109     142.422     109.915
  H      -41.009     146.940     107.814
  H      -42.613     146.752     108.481
  H      -42.143     145.841     107.066

 6  7  8  9  10  11  12  13  14  15  16  26  31  32  33  34  35 0
 6-311+G(2d,p)
 ****
 36  37 0
 6-311+G(2d,p)
 ****
 1  2  3  4  5  17  18  19  20  21  22  23  24  25 0
 3-21G
 ****
 27  28  29  30  38  39  40  41  42  43  44  45 0
 3-21G
 ****


