%nproc=1
%NoSave
%Mem=1900MB
#P OB98/GEN NMR

erre ene a

0 1
  C     -194.661      80.531    -109.973
  O     -194.710      79.120    -110.080
  P     -194.644      78.478    -111.546
  C     -193.515      76.259    -110.771
  O     -194.642      76.885    -111.369
  C     -193.895      74.851    -110.309
  O     -194.631      74.163    -111.345
  C     -192.692      73.966    -110.005
  O     -192.142      74.261    -108.735
  C     -193.306      72.574    -110.094
  O     -193.954      72.218    -108.862
  C     -194.345      72.754    -111.221
  N     -193.902      72.175    -112.485
  C     -194.361      70.893    -112.762
  O     -195.078      70.260    -111.989
  N     -193.935      70.344    -113.944
  C     -193.068      70.922    -114.826
  O     -192.678      70.356    -115.843
  C     -192.591      72.268    -114.466
  C     -193.018      72.821    -113.330
  O     -193.159      78.809    -112.042
  O     -195.673      78.992    -112.495
  H     -193.242      72.044    -108.213
  H     -193.162      78.987    -113.004
  H     -194.278      69.428    -114.175
  H     -191.901      72.752    -115.146
  H     -192.667      73.805    -113.041
  H     -195.290      72.277    -110.941
  H     -192.557      71.804    -110.295
  H     -191.939      74.076    -110.795
  H     -194.543      74.937    -109.430
  H     -193.185      76.852    -109.913
  H     -192.699      76.219    -111.499
  P     -190.553      74.080    -108.572
  C     -190.923      75.278    -106.280
  O     -190.274      74.257    -107.005
  O     -190.029      75.435    -109.248
  O     -190.041      72.827    -109.200
  H     -190.645      76.174    -109.113
  H     -191.942      75.442    -106.646
  H     -190.351      76.207    -106.367
  H     -190.968      74.988    -105.226
  H     -194.714      80.813    -108.942
  H     -195.487      80.958    -110.502
  H     -193.745      80.889    -110.394

 3  4  5  6  7  8  9  10  11  12  13  23  28  29  30  31  32 0
 6-311+G(2d,p)
 ****
 33  34 0
 6-311+G(2d,p)
 ****
 1  2  14  15  16  17  18  19  20  21  22  24  25  26 0
 3-21G
 ****
 27  35  36  37  38  39  40  41  42  43  44  45 0
 3-21G
 ****


