%nproc=1
%NoSave
%Mem=1900MB
#P OB98/GEN NMR

erre ene a

0 1
  C      129.248    -116.979     -75.651
  O      128.826    -117.520     -76.892
  P      128.348    -116.506     -78.038
  C      125.886    -116.536     -77.213
  O      127.032    -115.750     -77.513
  C      124.607    -115.816     -77.638
  O      124.287    -114.776     -76.673
  C      124.703    -115.145     -79.012
  O      123.424    -115.200     -79.660
  C      124.981    -113.692     -78.679
  O      124.591    -112.824     -79.742
  C      124.162    -113.533     -77.394
  N      122.734    -109.249     -75.119
  C      121.959    -110.273     -75.629
  N      120.622    -110.085     -75.603
  N      122.451    -111.384     -76.113
  C      123.809    -111.429     -76.081
  C      124.682    -110.489     -75.589
  C      124.122    -109.257     -75.065
  O      124.756    -108.299     -74.626
  N      125.983    -110.904     -75.695
  C      125.905    -112.078     -76.292
  N      124.609    -112.424     -76.578
  O      127.793    -117.487     -79.174
  O      129.424    -115.619     -78.576
  H      123.732    -113.152     -80.074
  H      128.425    -117.533     -79.913
  H      122.309    -108.409     -74.767
  H      126.747    -112.699     -76.560
  H      123.099    -113.384     -77.613
  H      126.051    -113.546     -78.495
  H      120.181    -109.225     -75.302
  H      125.466    -115.572     -79.672
  H      120.034    -110.801     -76.010
  H      123.775    -116.534     -77.619
  H      125.852    -116.720     -76.136
  H      125.959    -117.502     -77.722
  P      123.423    -115.756     -81.169
  C      123.271    -113.354     -82.171
  O      123.996    -114.567     -82.078
  O      121.867    -115.807     -81.543
  O      124.093    -117.081     -81.331
  H      121.704    -116.472     -82.237
  H      123.879    -112.549     -81.748
  H      122.315    -113.402     -81.635
  H      123.071    -113.140     -83.225
  H      129.534    -117.774     -74.994
  H      128.445    -116.425     -75.212
  H      130.083    -116.330     -75.811

 3  4  5  6  7  8  9  10  11  12  23  26  30  31 0
 6-311+G(2d,p)
 ****
 33  35  36  37  38 0
 6-311+G(2d,p)
 ****
 1  2  13  14  15  16  17  18  19  20  21  22  24  25 0
 3-21G
 ****
 27  28  29  32  34  39  40  41  42  43  44  45  46  47  48  49 0
 3-21G
 ****


