%nproc=1
%NoSave
%Mem=1900MB
#P OB98/GEN NMR

erre ene a

0 1
  C     -192.518      48.596      34.636
  O     -191.849      49.558      33.843
  H     -192.510      48.939      35.675
  H     -191.998      47.637      34.580
  H     -193.557      48.481      34.314
  P     -191.837      49.378      32.252
  C     -190.715      47.715      30.624
  O     -190.652      48.349      31.895
  C     -189.432      46.922      30.354
  O     -188.290      47.808      30.531
  C     -189.237      45.725      31.286
  O     -188.648      44.646      30.550
  C     -188.256      46.235      32.321
  O     -187.498      45.183      32.920
  C     -187.412      47.213      31.504
  N     -183.525      48.233      34.569
  C     -183.787      47.115      33.805
  N     -182.891      46.110      33.880
  N     -184.837      46.991      33.039
  C     -185.641      48.085      33.042
  C     -185.488      49.252      33.754
  C     -184.335      49.365      34.621
  O     -184.061      50.329      35.336
  N     -186.529      50.119      33.509
  C     -187.296      49.479      32.649
  N     -186.810      48.235      32.344
  O     -191.810      50.656      31.472
  O     -193.157      48.532      31.937
  H     -186.812      45.609      33.480
  H     -193.849      49.094      31.552
  H     -182.712      48.271      35.154
  H     -188.217      49.865      32.225
  H     -186.592      46.711      30.975
  H     -188.803      46.755      33.120
  H     -182.045      46.145      34.435
  H     -190.179      45.389      31.730
  H     -183.038      45.284      33.307
  H     -189.432      46.611      29.303
  H     -190.840      48.486      29.858
  H     -191.582      47.045      30.600
  P     -189.531      43.353      30.209
  C     -190.119      41.100      31.301
  O     -189.253      42.226      31.318
  O     -189.460      42.881      28.796
  O     -191.022      43.841      30.573
  H     -191.647      43.427      29.949
  H     -189.838      40.422      32.080
  H     -190.044      40.607      30.355
  H     -191.127      41.423      31.456

 6  7  8  9  10  11  12  13  14  15  26  29  33  34 0
 6-311+G(2d,p)
 ****
 36  38  39  40  41 0
 6-311+G(2d,p)
 ****
 1  2  3  4  5  16  17  18  19  20  21  22  23  24  25 0
 3-21G
 ****
 27  28  30  31  32  35  37  42  43  44  45  46  47 0
 3-21G
 ****
 48  49 0
 3-21G
 ****


