%nproc=1
%NoSave
%Mem=1900MB
#P OB98/GEN NMR

erre ene a

0 1
  C      352.931    -523.282     -67.310
  O      354.189    -523.906     -67.476
  P      355.535    -523.045     -67.340
  C      356.306    -524.024     -65.047
  O      355.843    -522.902     -65.771
  C      357.460    -523.632     -64.103
  O      357.004    -522.534     -63.280
  C      357.891    -524.731     -63.142
  O      359.189    -524.412     -62.634
  C      356.872    -524.589     -62.029
  O      357.313    -525.181     -60.806
  C      356.639    -523.053     -61.979
  N      355.234    -522.724     -61.673
  C      354.672    -523.359     -60.559
  O      355.314    -524.096     -59.813
  N      353.319    -523.184     -60.385
  C      352.508    -522.484     -61.238
  O      351.285    -522.588     -61.255
  C      353.190    -521.662     -62.244
  C      354.501    -521.838     -62.428
  O      355.066    -521.587     -67.779
  O      356.679    -523.535     -68.168
  H      356.531    -525.200     -60.205
  H      355.277    -521.427     -68.718
  H      352.891    -523.760     -59.667
  H      352.590    -520.979     -62.840
  H      355.024    -521.274     -63.204
  H      357.275    -522.584     -61.215
  H      355.943    -525.095     -62.327
  H      357.888    -525.747     -63.568
  H      358.305    -523.279     -64.698
  H      356.630    -524.798     -65.750
  H      355.496    -524.458     -64.457
  P      360.143    -525.615     -62.179
  C      361.586    -525.320     -64.288
  O      360.793    -526.207     -63.522
  O      359.532    -526.634     -61.268
  O      361.377    -524.864     -61.489
  H      361.870    -525.488     -60.920
  H      362.350    -525.896     -64.819
  H      362.083    -524.578     -63.646
  H      360.955    -524.813     -65.015
  H      352.154    -524.007     -67.435
  H      352.818    -522.508     -68.040
  H      352.869    -522.859     -66.329

 3  4  5  6  7  8  9  10  11  12  13  23  28  29  30  31  32 0
 6-311+G(2d,p)
 ****
 33  34 0
 6-311+G(2d,p)
 ****
 1  2  14  15  16  17  18  19  20  21  22  24  25  26  27 0
 3-21G
 ****
 35  36  37  38  39  40  41  42  43  44  45 0
 3-21G
 ****


