%nproc=1
%NoSave
%Mem=1900MB
#P OB98/GEN NMR

erre ene a

0 1
  C      452.961      80.551     549.516
  O      453.916      79.594     549.107
  H      452.508      80.213     550.454
  H      452.172      80.646     548.764
  H      453.435      81.519     549.686
  P      454.727      79.852     547.747
  C      452.872      79.732     545.939
  O      453.897      79.037     546.636
  C      452.215      78.811     544.914
  O      453.165      78.363     543.924
  C      451.631      77.523     545.487
  O      450.429      77.720     546.219
  C      451.403      76.744     544.210
  O      450.247      77.249     543.528
  C      452.705      77.071     543.434
  N      453.743      76.054     543.607
  C      454.673      75.922     542.572
  O      454.604      76.632     541.572
  N      455.653      74.959     542.680
  C      455.679      74.185     543.721
  N      456.663      73.246     543.769
  C      454.703      74.277     544.825
  C      453.772      75.222     544.705
  O      456.195      79.566     547.795
  O      454.383      81.367     547.357
  H      450.095      76.671     542.758
  H      454.870      81.582     546.524
  H      454.754      73.586     545.649
  H      453.018      75.341     545.480
  H      452.500      77.187     542.363
  H      451.242      75.675     544.375
  H      452.376      76.995     546.097
  H      451.452      79.396     544.389
  H      457.320      73.209     542.998
  H      453.319      80.604     545.458
  H      456.721      72.549     544.502
  H      452.108      80.070     546.647
  P      450.553      77.757     547.829
  C      450.929      75.178     547.932
  O      450.158      76.295     548.339
  O      449.317      78.674     548.259
  O      451.862      78.269     548.346
  H      449.608      79.590     548.438
  H      450.523      74.288     548.365
  H      451.940      75.305     548.258
  H      450.906      75.098     546.865

 6  7  8  9  10  11  12  13  14  15  16  26  30  31  32  33  35 0
 6-311+G(2d,p)
 ****
 37  38 0
 6-311+G(2d,p)
 ****
 1  2  3  4  5  17  18  19  20  21  22  23  24  25 0
 3-21G
 ****
 27  28  29  34  36  39  40  41  42  43  44  45  46 0
 3-21G
 ****


