%nproc=1
%NoSave
%Mem=1900MB
#P OB98/GEN NMR

erre ene a

0 1
  C     -156.462    1073.338     121.265
  O     -156.525    1074.743     121.143
  H     -157.071    1072.892     120.476
  H     -156.863    1073.025     122.232
  H     -155.428    1072.984     121.158
  P     -155.576    1075.607     122.111
  C     -153.831    1075.867     120.203
  O     -154.077    1075.456     121.535
  C     -153.010    1077.163     120.174
  O     -151.665    1076.868     120.671
  C     -152.865    1077.782     118.784
  O     -152.929    1079.200     118.921
  C     -151.478    1077.376     118.339
  O     -150.914    1078.260     117.374
  C     -150.729    1077.330     119.673
  N     -149.548    1076.447     119.600
  C     -148.380    1077.025     119.101
  O     -148.358    1078.189     118.737
  N     -147.260    1076.221     118.969
  C     -147.341    1074.957     119.231
  N     -146.216    1074.222     119.048
  C     -148.580    1074.297     119.697
  C     -149.639    1075.101     119.867
  O     -155.538    1074.757     123.457
  O     -156.012    1077.016     122.333
  H     -151.503    1078.269     116.590
  H     -155.449    1075.332     124.240
  H     -148.608    1073.234     119.878
  H     -150.598    1074.709     120.202
  H     -150.401    1078.324     119.975
  H     -151.517    1076.362     117.885
  H     -153.645    1077.443     118.090
  H     -153.461    1077.865     120.884
  H     -145.396    1074.694     118.714
  H     -154.783    1076.051     119.700
  H     -146.172    1073.212     119.183
  H     -153.297    1075.074     119.664
  P     -154.290    1079.912     118.443
  C     -155.154    1080.489     120.826
  O     -155.367    1079.777     119.626
  O     -154.832    1078.952     117.299
  O     -154.076    1081.312     117.948
  H     -154.733    1079.379     116.424
  H     -155.957    1080.292     121.505
  H     -155.114    1081.537     120.616
  H     -154.230    1080.178     121.266

 6  7  8  9  10  11  12  13  14  15  16  26  30  31  32  33  35 0
 6-311+G(2d,p)
 ****
 37  38 0
 6-311+G(2d,p)
 ****
 1  2  3  4  5  17  18  19  20  21  22  23  24  25 0
 3-21G
 ****
 27  28  29  34  36  39  40  41  42  43  44  45  46 0
 3-21G
 ****


