%nproc=1
%NoSave
%Mem=1900MB
#P OB98/GEN NMR

erre ene a

0 1
  C     1932.468     -73.919     415.276
  O     1931.651     -74.659     416.173
  P     1932.293     -75.990     416.808
  C     1931.973     -75.408     419.347
  O     1932.863     -75.541     418.242
  C     1931.815     -73.926     419.696
  O     1931.190     -73.216     418.589
  C     1930.926     -73.667     420.889
  O     1931.572     -73.963     422.106
  C     1930.583     -72.185     420.710
  O     1931.673     -71.368     421.191
  C     1930.475     -72.076     419.167
  N     1929.103     -72.025     418.691
  C     1928.677     -70.784     418.210
  O     1929.389     -69.770     418.207
  N     1927.383     -70.723     417.767
  C     1926.496     -71.751     417.779
  O     1925.353     -71.641     417.349
  C     1926.989     -73.011     418.336
  C     1928.233     -73.093     418.767
  O     1933.605     -76.179     415.904
  O     1931.345     -77.141     416.823
  H     1934.000     -75.337     415.629
  H     1931.357     -70.441     421.095
  H     1927.077     -69.844     417.412
  H     1926.268     -73.845     418.384
  H     1928.602     -74.020     419.191
  H     1931.007     -71.182     418.816
  H     1929.688     -71.871     421.244
  H     1930.010     -74.261     420.822
  H     1932.805     -73.485     419.859
  H     1932.380     -75.930     420.217
  H     1931.022     -75.873     419.100
  P     1930.655     -74.563     423.308
  C     1932.155     -76.194     424.693
  O     1931.219     -76.026     423.660
  O     1929.291     -74.859     422.532
  O     1930.505     -73.637     424.475
  H     1929.430     -75.281     421.658
  H     1932.147     -77.236     425.002
  H     1931.893     -75.597     425.564
  H     1933.156     -75.937     424.348
  H     1931.929     -73.063     414.926
  H     1932.735     -74.537     414.444
  H     1933.355     -73.600     415.782

 3  4  5  6  7  8  9  10  11  12  13  24  28  29  30  31  32 0
 6-311+G(2d,p)
 ****
 33  34 0
 6-311+G(2d,p)
 ****
 1  2  14  15  16  17  18  19  20  21  22  23  25  26  27 0
 3-21G
 ****
 35  36  37  38  39  40  41  42  43  44  45 0
 3-21G
 ****


