%nproc=1
%NoSave
%Mem=1900MB
#P OB98/GEN NMR

erre ene a

0 1
  C       48.024     -85.993    -124.224
  O       48.438     -86.980    -125.152
  P       47.804     -86.958    -126.625
  C       45.416     -87.489    -127.581
  O       46.316     -87.539    -126.490
  C       43.987     -87.767    -127.105
  O       43.518     -86.629    -126.330
  C       42.975     -88.000    -128.235
  O       42.035     -88.975    -127.768
  C       42.310     -86.643    -128.376
  O       41.035     -86.719    -128.993
  C       42.278     -86.187    -126.913
  N       42.124     -84.741    -126.758
  C       40.836     -84.234    -126.628
  O       39.820     -84.926    -126.657
  N       40.744     -82.873    -126.488
  C       41.780     -81.987    -126.532
  O       41.639     -80.776    -126.419
  C       43.113     -82.577    -126.720
  C       43.222     -83.902    -126.812
  O       48.621     -88.137    -127.331
  O       47.900     -85.633    -127.300
  H       48.821     -88.874    -126.729
  H       40.525     -85.932    -128.730
  H       39.821     -82.487    -126.354
  H       43.960     -81.905    -126.775
  H       44.194     -84.360    -126.952
  H       41.470     -86.701    -126.379
  H       42.944     -85.988    -128.985
  H       43.449     -88.351    -129.156
  H       44.012     -88.631    -126.430
  H       45.698     -88.243    -128.320
  H       45.483     -86.507    -128.060
  P       40.974     -89.571    -128.821
  C       38.956     -88.582    -130.162
  O       40.074     -88.352    -129.336
  O       39.986     -90.345    -127.820
  O       41.557     -90.466    -129.864
  H       39.718     -89.803    -127.061
  H       38.304     -87.706    -130.123
  H       38.387     -89.454    -129.831
  H       39.285     -88.729    -131.194
  H       48.533     -86.141    -123.295
  H       46.968     -86.070    -124.068
  H       48.258     -85.022    -124.608

 3  4  5  6  7  8  9  10  11  12  13  24  28  29  30  31  32 0
 6-311+G(2d,p)
 ****
 33  34 0
 6-311+G(2d,p)
 ****
 1  2  14  15  16  17  18  19  20  21  22  23  25  26  27 0
 3-21G
 ****
 35  36  37  38  39  40  41  42  43  44  45 0
 3-21G
 ****


