%nproc=1
%NoSave
%Mem=1900MB
#P OB98/GEN NMR

erre ene a

0 1
  C     -154.590       4.793      -9.139
  O     -154.207       5.895      -8.347
  H     -153.914       4.724      -9.997
  H     -155.606       4.938      -9.512
  H     -154.529       3.860      -8.572
  P     -154.846       6.066      -6.886
  C     -157.175       6.752      -6.014
  O     -156.264       6.784      -7.104
  C     -158.539       7.290      -6.455
  O     -158.362       8.668      -6.906
  C     -159.168       6.494      -7.619
  O     -160.592       6.494      -7.454
  C     -158.781       7.350      -8.810
  O     -159.594       7.092      -9.928
  C     -158.928       8.752      -8.226
  N     -158.261       9.750      -9.057
  C     -158.816       9.999     -10.308
  O     -159.813       9.421     -10.740
  N     -158.140      10.892     -11.097
  C     -156.936      11.460     -10.805
  O     -156.338      12.193     -11.581
  C     -156.369      11.120      -9.489
  C     -157.051      10.298      -8.685
  O     -153.973       6.709      -5.860
  O     -155.281       4.581      -6.472
  H     -159.170       7.440     -10.735
  H     -155.372       4.513      -5.503
  H     -158.535      11.092     -12.003
  H     -155.405      11.542      -9.233
  H     -156.656      10.010      -7.717
  H     -159.987       9.023      -8.117
  H     -157.744       7.148      -9.097
  H     -158.800       5.470      -7.686
  H     -159.212       7.321      -5.590
  H     -156.772       7.377      -5.210
  H     -157.275       5.723      -5.651
  P     -161.407       5.144      -7.155
  C     -162.304       3.078      -8.391
  O     -161.420       4.193      -8.452
  O     -162.759       5.368      -6.555
  O     -160.481       4.346      -6.121
  H     -161.034       4.003      -5.392
  H     -162.233       2.517      -9.299
  H     -163.308       3.425      -8.264
  H     -162.035       2.454      -7.564

 6  7  8  9  10  11  12  13  14  15  16  26  31  32  33  34  35 0
 6-311+G(2d,p)
 ****
 36  37 0
 6-311+G(2d,p)
 ****
 1  2  3  4  5  17  18  19  20  21  22  23  24  25 0
 3-21G
 ****
 27  28  29  30  38  39  40  41  42  43  44  45 0
 3-21G
 ****


