%nproc=1
%NoSave
%Mem=1900MB
#P OB98/GEN NMR

erre ene a

0 1
  C      155.826    -208.823    -199.294
  O      154.841    -209.034    -200.298
  P      153.775    -210.213    -200.079
  C      154.610    -211.443    -202.202
  O      154.363    -211.517    -200.806
  C      154.255    -212.758    -202.895
  O      154.756    -213.862    -202.097
  C      152.754    -212.988    -203.100
  O      152.596    -213.727    -204.320
  C      152.384    -213.881    -201.931
  O      151.176    -214.601    -202.159
  C      153.641    -214.742    -201.835
  N      152.356    -218.753    -198.926
  C      152.070    -218.442    -200.212
  N      152.447    -217.355    -200.917
  C      153.200    -216.538    -200.160
  C      153.548    -216.706    -198.829
  C      153.097    -217.877    -198.199
  N      153.399    -218.202    -196.900
  N      154.308    -215.638    -198.389
  C      154.417    -214.842    -199.435
  N      153.785    -215.360    -200.533
  O      152.563    -209.767    -201.027
  O      153.319    -210.405    -198.671
  H      151.220    -215.002    -203.047
  H      151.792    -209.512    -200.483
  H      151.459    -219.168    -200.745
  H      154.936    -213.893    -199.449
  H      153.654    -215.540    -202.590
  H      152.249    -213.273    -201.026
  H      152.160    -212.068    -203.133
  H      154.783    -212.791    -203.860
  H      155.670    -211.237    -202.361
  H      153.152    -219.116    -196.564
  H      154.100    -217.654    -196.411
  H      154.029    -210.620    -202.633
  P      151.874    -212.974    -205.536
  C      149.596    -214.215    -205.445
  O      150.303    -213.007    -205.230
  O      152.047    -213.995    -206.757
  O      152.446    -211.630    -205.854
  H      152.051    -213.508    -207.605
  H      148.795    -214.295    -204.707
  H      150.251    -215.089    -205.358
  H      149.160    -214.197    -206.451
  H      156.459    -208.009    -199.581
  H      156.415    -209.709    -199.180
  H      155.346    -208.592    -198.366

 3  4  5  6  7  8  9  10  11  12  22  25  29  30  31  32 0
 6-311+G(2d,p)
 ****
 33  36  37 0
 6-311+G(2d,p)
 ****
 1  2  13  14  15  16  17  18  19  20  21  23  24  26 0
 3-21G
 ****
 27  28  34  35  38  39  40  41  42  43  44  45  46  47  48 0
 3-21G
 ****


