%nproc=1
%NoSave
%Mem=1900MB
#P OB98/GEN NMR

erre ene a

0 1
  C     -312.384     -95.455    -882.937
  O     -312.785     -94.999    -881.661
  P     -314.325     -94.583    -881.473
  C     -313.653     -93.195    -879.364
  O     -314.346     -93.230    -880.603
  C     -313.580     -91.746    -878.858
  O     -312.552     -91.010    -879.570
  C     -314.868     -90.960    -879.062
  O     -315.836     -91.288    -878.078
  C     -314.369     -89.523    -878.969
  O     -314.268     -89.101    -877.606
  C     -312.977     -89.628    -879.631
  N     -312.942     -89.109    -880.984
  C     -312.998     -87.712    -881.102
  O     -313.087     -86.963    -880.139
  N     -312.972     -87.222    -882.379
  C     -312.985     -87.967    -883.529
  O     -313.025     -87.473    -884.651
  C     -312.957     -89.432    -883.342
  C     -312.942     -89.926    -882.100
  O     -314.906     -95.692    -880.462
  O     -315.108     -94.515    -882.738
  H     -313.784     -88.250    -877.607
  H     -315.834     -95.889    -880.689
  H     -312.993     -86.226    -882.489
  H     -312.943     -90.047    -884.238
  H     -312.940     -91.002    -881.946
  H     -312.236     -89.059    -879.022
  H     -315.043     -88.825    -879.479
  H     -315.255     -91.146    -880.071
  H     -313.300     -91.763    -877.788
  H     -312.640     -93.592    -879.504
  H     -314.174     -93.828    -878.637
  P     -317.195     -91.984    -878.593
  C     -318.139     -91.106    -876.316
  O     -318.356     -91.340    -877.700
  O     -317.000     -93.468    -878.024
  O     -317.363     -91.906    -880.069
  H     -316.505     -93.483    -877.176
  H     -317.109     -90.797    -876.113
  H     -318.368     -92.003    -875.750
  H     -318.809     -90.303    -875.996
  H     -311.341     -95.695    -882.918
  H     -312.560     -94.688    -883.662
  H     -312.947     -96.327    -883.197

 3  4  5  6  7  8  9  10  11  12  13  23  28  29  30  31  32 0
 6-311+G(2d,p)
 ****
 33  34 0
 6-311+G(2d,p)
 ****
 1  2  14  15  16  17  18  19  20  21  22  24  25  26 0
 3-21G
 ****
 27  35  36  37  38  39  40  41  42  43  44  45 0
 3-21G
 ****


