%nproc=1
%NoSave
%Mem=1900MB
#P OB98/GEN NMR

erre ene a

0 1
  C      180.591     190.009     367.583
  O      181.796     189.289     367.775
  H      180.108     190.151     368.552
  H      179.918     189.450     366.928
  H      180.806     190.989     367.146
  P      182.606     188.880     366.449
  C      181.600     186.471     366.503
  O      181.710     187.706     365.813
  C      180.371     185.710     366.026
  O      179.159     186.310     366.540
  C      180.191     185.686     364.509
  O      181.051     184.757     363.856
  C      178.737     185.263     364.419
  O      178.617     183.859     364.718
  C      178.116     186.134     365.541
  N      177.632     187.429     365.062
  C      176.240     187.584     364.968
  O      175.485     186.667     365.274
  N      175.745     188.774     364.491
  C      176.557     189.732     364.164
  N      176.001     190.888     363.697
  C      178.020     189.618     364.254
  C      178.489     188.453     364.707
  O      183.872     188.088     367.022
  O      182.940     189.996     365.516
  H      177.672     183.643     364.678
  H      184.366     187.659     366.276
  H      178.660     190.438     363.957
  H      179.556     188.291     364.801
  H      177.288     185.601     366.025
  H      178.300     185.417     363.430
  H      180.300     186.686     364.075
  H      180.426     184.690     366.431
  H      174.999     190.915     363.587
  H      181.511     186.690     367.581
  H      176.546     191.625     363.276
  H      182.493     185.867     366.344
  P      181.571     185.149     362.383
  C      179.922     183.552     361.145
  O      180.349     184.892     361.382
  O      182.590     183.965     362.037
  O      182.213     186.494     362.284
  H      183.333     184.291     361.497
  H      179.102     183.555     360.458
  H      179.612     183.108     362.068
  H      180.732     182.987     360.732

 6  7  8  9  10  11  12  13  14  15  16  26  30  31  32  33  35 0
 6-311+G(2d,p)
 ****
 37  38 0
 6-311+G(2d,p)
 ****
 1  2  3  4  5  17  18  19  20  21  22  23  24  25 0
 3-21G
 ****
 27  28  29  34  36  39  40  41  42  43  44  45  46 0
 3-21G
 ****


