%nproc=1
%NoSave
%Mem=1900MB
#P OB98/GEN NMR

erre ene a

0 1
  C       95.234     430.027      25.802
  O       95.941     429.528      24.680
  P       96.148     430.521      23.431
  C       94.787     428.889      21.935
  O       95.982     429.642      22.099
  C       94.838     428.053      20.656
  O       93.639     427.231      20.581
  C       94.907     428.878      19.358
  O       95.716     428.133      18.437
  C       93.451     428.903      18.921
  O       93.264     429.262      17.560
  C       93.030     427.488      19.295
  N       88.753     426.856      16.564
  C       90.054     426.912      16.200
  N       91.142     427.071      16.985
  C       90.782     427.170      18.280
  C       89.496     427.154      18.798
  C       88.449     426.982      17.879
  N       87.119     426.937      18.251
  N       89.521     427.310      20.168
  C       90.797     427.429      20.471
  N       91.596     427.328      19.368
  O       97.716     430.829      23.474
  O       95.328     431.775      23.476
  H       93.754     430.081      17.361
  H       97.903     431.760      23.249
  H       90.245     426.811      15.133
  H       91.189     427.593      21.465
  H       93.419     426.740      18.588
  H       92.911     429.644      19.522
  H       95.347     429.873      19.496
  H       95.694     427.375      20.719
  H       93.937     429.575      21.866
  H       86.441     427.014      17.510
  H       86.895     427.239      19.194
  H       94.634     428.256      22.815
  P       96.659     428.927      17.413
  C       94.948     429.024      15.498
  O       96.155     428.445      15.969
  O       98.029     428.110      17.568
  O       96.783     430.395      17.643
  H       97.886     427.151      17.471
  H       94.779     428.684      14.472
  H       95.020     430.115      15.504
  H       94.113     428.695      16.122
  H       95.172     429.266      26.552
  H       94.248     430.315      25.503
  H       95.749     430.877      26.199

 3  4  5  6  7  8  9  10  11  12  22  25  29  30  31  32 0
 6-311+G(2d,p)
 ****
 33  36  37 0
 6-311+G(2d,p)
 ****
 1  2  13  14  15  16  17  18  19  20  21  23  24  26 0
 3-21G
 ****
 27  28  34  35  38  39  40  41  42  43  44  45  46  47  48 0
 3-21G
 ****


