%nproc=1
%NoSave
%Mem=1900MB
#P OB98/GEN NMR

erre ene a

0 1
  C       73.282    -173.778     331.619
  O       74.011    -173.074     332.606
  P       73.717    -173.338     334.156
  C       75.976    -173.952     335.217
  O       74.756    -174.445     334.672
  C       76.751    -175.082     335.893
  O       77.119    -176.089     334.923
  C       78.057    -174.639     336.538
  O       77.815    -173.978     337.765
  C       78.788    -175.971     336.667
  O       78.342    -176.685     337.833
  C       78.342    -176.698     335.388
  N       81.849    -179.429     332.887
  C       81.119    -179.698     333.989
  N       80.228    -178.900     334.620
  C       80.151    -177.708     334.009
  C       80.860    -177.278     332.897
  C       81.731    -178.212     332.310
  N       82.435    -177.969     331.148
  N       80.524    -175.972     332.588
  C       79.641    -175.623     333.497
  N       79.339    -176.657     334.337
  O       72.289    -173.603     334.501
  O       74.235    -172.002     334.874
  H       78.894    -177.485     337.909
  H       73.488    -171.574     335.337
  H       81.258    -180.687     334.419
  H       79.185    -174.645     333.581
  H       78.115    -177.755     335.581
  H       79.872    -175.849     336.754
  H       78.611    -173.990     335.853
  H       76.092    -175.553     336.634
  H       75.735    -173.179     335.954
  H       82.914    -178.757     330.737
  H       82.132    -177.204     330.551
  H       76.577    -173.505     334.419
  P       78.110    -172.409     337.896
  C       76.145    -171.944     339.475
  O       76.707    -171.696     338.203
  O       78.903    -171.807     336.786
  O       78.882    -172.289     339.292
  H       79.518    -171.551     339.249
  H       75.675    -172.933     339.482
  H       75.382    -171.190     339.676
  H       76.907    -171.895     340.259
  H       73.612    -173.474     330.647
  H       72.239    -173.563     331.725
  H       73.444    -174.829     331.738

 3  4  5  6  7  8  9  10  11  12  22  25  29  30  31  32 0
 6-311+G(2d,p)
 ****
 33  36  37 0
 6-311+G(2d,p)
 ****
 1  2  13  14  15  16  17  18  19  20  21  23  24  26 0
 3-21G
 ****
 27  28  34  35  38  39  40  41  42  43  44  45  46  47  48 0
 3-21G
 ****


