%nproc=1
%NoSave
%Mem=1900MB
#P OB98/GEN NMR

erre ene a

0 1
  C      -43.773      11.609     265.336
  O      -45.189      11.521     265.316
  P      -46.031      11.584     266.680
  C      -45.998       9.014     266.780
  O      -45.718      10.224     267.474
  C      -46.635       7.988     267.716
  O      -45.691       7.666     268.765
  C      -47.911       8.491     268.388
  O      -48.824       7.396     268.518
  C      -47.464       8.910     269.780
  O      -48.550       8.834     270.716
  C      -46.319       7.922     270.035
  N      -44.775       8.210     274.929
  C      -45.809       7.559     274.349
  N      -46.177       7.547     273.048
  C      -45.309       8.263     272.309
  C      -44.208       8.976     272.758
  C      -43.950       8.937     274.140
  N      -42.885       9.590     274.725
  N      -43.575       9.615     271.703
  C      -44.272       9.272     270.643
  N      -45.325       8.449     270.954
  O      -47.481      11.884     266.513
  O      -45.292      12.697     267.559
  H      -48.194       9.087     271.591
  H      -45.943      13.230     268.057
  H      -46.428       6.974     275.021
  H      -44.069       9.599     269.633
  H      -46.686       6.969     270.433
  H      -47.108       9.944     269.756
  H      -48.385       9.312     267.839
  H      -46.826       7.070     267.151
  H      -45.056       8.612     266.394
  H      -42.709       9.406     275.701
  H      -42.178       9.984     274.119
  H      -46.656       9.226     265.930
  P      -50.377       7.743     268.271
  C      -50.861       7.518     270.820
  O      -50.890       8.332     269.669
  O      -51.127       6.585     267.700
  O      -50.261       9.014     267.296
  H      -49.404       9.479     267.413
  H      -51.285       8.081     271.660
  H      -49.831       7.251     271.068
  H      -51.456       6.612     270.665
  H      -43.398      11.548     264.336
  H      -43.374      10.804     265.916
  H      -43.480      12.542     265.771

 3  4  5  6  7  8  9  10  11  12  22  25  29  30  31  32 0
 6-311+G(2d,p)
 ****
 33  36  37 0
 6-311+G(2d,p)
 ****
 1  2  13  14  15  16  17  18  19  20  21  23  24  26 0
 3-21G
 ****
 27  28  34  35  38  39  40  41  42  43  44  45  46  47  48 0
 3-21G
 ****


