%nproc=1
%NoSave
%Mem=1900MB
#P OB98/GEN NMR

erre ene a

0 1
  C      -93.624      21.847     -60.834
  O      -93.260      20.677     -61.541
  P      -93.421      19.234     -60.871
  C      -95.946      19.326     -61.285
  O      -94.925      19.122     -60.318
  C      -97.072      18.304     -61.129
  O      -98.165      18.663     -62.017
  C      -96.674      16.857     -61.454
  O      -97.430      16.015     -60.578
  C      -97.173      16.687     -62.880
  O      -97.349      15.323     -63.245
  C      -98.461      17.499     -62.816
  N     -102.564      18.666     -65.632
  C     -102.441      18.240     -64.358
  N     -101.314      17.925     -63.688
  C     -100.234      18.091     -64.468
  C     -100.206      18.490     -65.794
  C     -101.444      18.804     -66.382
  N     -101.585      19.274     -67.668
  N      -98.907      18.484     -66.270
  C      -98.173      18.092     -65.250
  N      -98.925      17.906     -64.124
  O      -92.366      18.870     -59.880
  O      -93.417      18.228     -62.114
  H      -97.870      14.882     -62.548
  H      -92.565      17.751     -62.152
  H     -103.369      18.143     -63.800
  H      -97.105      17.927     -65.272
  H      -99.273      16.949     -62.326
  H      -96.454      17.133     -63.576
  H      -95.604      16.658     -61.356
  H      -97.455      18.373     -60.103
  H      -95.498      19.218     -62.278
  H     -102.500      19.593     -67.942
  H     -100.765      19.635     -68.152
  H      -96.345      20.342     -61.196
  P      -96.742      14.725     -59.922
  C      -96.902      15.893     -57.651
  O      -96.056      15.217     -58.562
  O      -95.865      13.934     -60.833
  O      -97.991      13.860     -59.405
  H      -97.705      12.941     -59.244
  H      -97.013      16.935     -57.963
  H      -96.449      15.866     -56.656
  H      -97.888      15.423     -57.605
  H      -93.443      22.705     -61.447
  H      -93.041      21.919     -59.939
  H      -94.663      21.802     -60.581

 3  4  5  6  7  8  9  10  11  12  22  25  29  30  31  32 0
 6-311+G(2d,p)
 ****
 33  36  37 0
 6-311+G(2d,p)
 ****
 1  2  13  14  15  16  17  18  19  20  21  23  24  26 0
 3-21G
 ****
 27  28  34  35  38  39  40  41  42  43  44  45  46  47  48 0
 3-21G
 ****


