%nproc=1
%NoSave
%Mem=1900MB
#P OB98/GEN NMR

erre ene a

0 1
  C     1255.233     641.104    2504.784
  O     1256.236     641.374    2505.750
  H     1255.544     640.239    2504.198
  H     1255.123     641.955    2504.113
  H     1254.276     640.883    2505.271
  P     1256.057     642.655    2506.716
  C     1255.541     641.169    2508.783
  O     1255.087     642.205    2507.888
  C     1254.833     641.253    2510.113
  O     1255.138     642.567    2510.709
  C     1253.271     641.138    2509.998
  O     1252.738     640.117    2510.824
  C     1252.830     642.574    2510.173
  O     1251.468     642.687    2510.657
  C     1253.877     643.198    2511.097
  N     1254.008     644.643    2510.981
  C     1252.920     645.420    2511.396
  O     1251.854     644.956    2511.866
  N     1253.074     646.762    2511.267
  C     1254.170     647.438    2510.749
  O     1254.235     648.623    2510.652
  C     1255.250     646.544    2510.286
  C     1255.149     645.209    2510.418
  O     1255.667     643.925    2506.010
  O     1257.491     642.781    2507.433
  H     1251.251     643.621    2510.567
  H     1257.975     643.533    2507.051
  H     1252.320     647.310    2511.605
  H     1256.149     647.023    2509.877
  H     1255.952     644.555    2510.078
  H     1253.692     642.953    2512.129
  H     1252.853     643.069    2509.185
  H     1252.999     640.811    2508.986
  H     1255.227     640.473    2510.784
  H     1256.632     641.303    2508.902
  H     1255.354     640.217    2508.306
  P     1251.900     638.858    2510.310
  C     1253.196     637.027    2511.726
  O     1252.850     637.550    2510.459
  O     1251.138     638.989    2509.031
  O     1250.812     638.639    2511.524
  H     1250.023     638.250    2511.075
  H     1253.824     636.170    2511.599
  H     1252.307     636.743    2512.249
  H     1253.718     637.772    2512.289

 6  7  8  9  10  11  12  13  14  15  16  26  31  32  33  34  35 0
 6-311+G(2d,p)
 ****
 36  37 0
 6-311+G(2d,p)
 ****
 1  2  3  4  5  17  18  19  20  21  22  23  24  25 0
 3-21G
 ****
 27  28  29  30  38  39  40  41  42  43  44  45 0
 3-21G
 ****


