%nproc=1
%NoSave
%Mem=1900MB
#P OB98/GEN NMR

erre ene a

0 1
  C      -19.531     492.788    -765.212
  O      -20.591     492.063    -764.613
  H      -19.434     492.476    -766.252
  H      -18.596     492.593    -764.688
  H      -19.751     493.863    -765.184
  P      -20.912     492.398    -763.077
  C      -22.672     494.276    -763.498
  O      -22.423     492.944    -763.040
  C      -24.169     494.473    -763.687
  O      -24.601     493.900    -764.941
  C      -25.032     493.794    -762.614
  O      -25.061     494.540    -761.396
  C      -26.374     493.727    -763.329
  O      -27.103     494.961    -763.211
  C      -25.979     493.479    -764.784
  N      -28.848     490.190    -767.427
  C      -28.908     491.538    -767.289
  N      -28.093     492.343    -766.583
  C      -27.124     491.619    -765.979
  C      -26.938     490.246    -766.033
  C      -27.863     489.518    -766.803
  N      -27.817     488.135    -766.924
  N      -25.850     489.875    -765.252
  C      -25.389     490.999    -764.743
  N      -26.123     492.089    -765.177
  O      -20.029     493.702    -762.798
  O      -20.609     491.298    -762.114
  H      -27.914     494.833    -763.761
  H      -19.211     493.444    -762.327
  H      -29.722     492.031    -767.839
  H      -24.540     491.098    -764.084
  H      -26.575     494.084    -765.484
  H      -26.997     492.936    -762.902
  H      -24.666     492.775    -762.442
  H      -24.385     495.559    -763.733
  H      -22.162     494.438    -764.463
  H      -22.279     494.982    -762.758
  H      -28.545     487.682    -767.420
  H      -27.146     487.624    -766.361
  P      -25.026     493.699    -760.041
  C      -22.454     493.222    -760.017
  O      -23.559     493.882    -759.411
  O      -25.036     492.166    -760.518
  O      -26.151     493.996    -759.090
  H      -25.547     491.627    -759.879
  H      -21.561     493.451    -759.474
  H      -22.352     493.554    -761.029
  H      -22.619     492.165    -760.003

 6  7  8  9  10  11  12  13  14  15  25  28  32  33  34  35 0
 6-311+G(2d,p)
 ****
 36  37  40 0
 6-311+G(2d,p)
 ****
 1  2  3  4  5  16  17  18  19  20  21  22  23  24 0
 3-21G
 ****
 26  27  29  30  31  38  39 41  42  43  44  45  46  47  48 0
 3-21G
 ****


