%nproc=1
%NoSave
%Mem=1900MB
#P OB98/GEN NMR

erre ene a

0 1
  C       30.929      26.867      60.685
  O       30.616      26.094      59.544
  H       31.446      27.774      60.361
  H       31.589      26.312      61.358
  H       30.016      27.155      61.212
  P       29.921      24.667      59.756
  C       32.129      23.321      59.852
  O       30.976      23.766      60.559
  C       33.194      22.819      60.824
  O       33.654      23.897      61.663
  C       32.708      21.732      61.775
  O       32.597      20.494      61.102
  C       33.781      21.800      62.848
  O       34.977      21.129      62.423
  C       34.017      23.327      62.943
  N       33.273      23.965      64.024
  C       34.000      24.258      65.183
  O       35.193      23.966      65.257
  N       33.346      24.856      66.232
  C       32.096      25.176      66.120
  N       31.509      25.770      67.193
  C       31.302      24.916      64.904
  C       31.943      24.304      63.910
  O       29.359      24.016      58.530
  O       28.784      24.950      60.847
  H       35.616      21.221      63.158
  H       27.931      25.135      60.412
  H       30.264      25.208      64.851
  H       31.432      24.077      62.980
  H       35.083      23.541      63.093
  H       33.466      21.331      63.780
  H       31.752      22.021      62.225
  H       34.052      22.471      60.234
  H       32.100      25.947      67.999
  H       32.509      24.177      59.285
  H       30.598      26.204      67.163
  H       31.864      22.529      59.142
  P       31.691      19.304      61.678
  C       33.840      18.210      62.571
  O       32.532      18.661      62.886
  O       31.205      18.327      60.661
  O       30.512      20.065      62.445
  H       29.849      20.413      61.799
  H       34.299      17.805      63.449
  H       34.423      19.031      62.211
  H       33.784      17.454      61.816

 6  7  8  9  10  11  12  13  14  15  16  26  30  31  32  33  35 0
 6-311+G(2d,p)
 ****
 37  38 0
 6-311+G(2d,p)
 ****
 1  2  3  4  5  17  18  19  20  21  22  23  24  25 0
 3-21G
 ****
 27  28  29  34  36  39  40  41  42  43  44  45  46 0
 3-21G
 ****


