%nproc=1
%NoSave
%Mem=1900MB
#P OB98/GEN NMR

erre ene a

0 1
  C      -58.855     219.883     433.515
  O      -58.344     221.203     433.334
  P      -58.155     222.129     434.630
  C      -59.049     224.500     433.869
  O      -57.964     223.651     434.186
  C      -58.519     225.934     433.673
  O      -58.005     226.457     434.917
  C      -57.390     226.028     432.650
  O      -57.880     226.168     431.327
  C      -56.621     227.237     433.143
  O      -57.293     228.450     432.757
  C      -56.695     227.039     434.669
  N      -55.668     226.183     435.314
  C      -54.323     226.511     435.198
  O      -53.896     227.485     434.580
  N      -53.442     225.678     435.837
  C      -53.771     224.672     436.707
  O      -52.937     223.996     437.298
  C      -55.205     224.467     436.910
  C      -56.067     225.204     436.211
  O      -56.718     221.714     435.191
  O      -59.227     221.972     435.664
  H      -56.734     229.194     433.045
  H      -56.802     221.300     436.070
  H      -52.461     225.858     435.703
  H      -55.509     223.712     437.625
  H      -57.139     225.054     436.364
  H      -56.667     228.009     435.191
  H      -55.630     227.286     432.692
  H      -56.732     225.156     432.733
  H      -59.360     226.571     433.357
  H      -59.798     224.488     434.661
  H      -59.535     224.152     432.956
  P      -57.576     225.028     430.243
  C      -57.892     226.822     428.432
  O      -58.270     225.538     428.881
  O      -57.902     223.632     430.649
  O      -56.011     225.216     429.926
  H      -55.472     224.598     430.463
  H      -58.305     226.982     427.433
  H      -56.806     226.912     428.389
  H      -58.302     227.584     429.105
  H      -58.923     219.394     432.566
  H      -59.826     219.935     433.960
  H      -58.198     219.331     434.154

 3  4  5  6  7  8  9  10  11  12  13  23  28  29  30  31  32 0
 6-311+G(2d,p)
 ****
 33  34 0
 6-311+G(2d,p)
 ****
 1  2  14  15  16  17  18  19  20  21  22  24  25  26  27 0
 3-21G
 ****
 35  36  37  38  39  40  41  42  43  44  45 0
 3-21G
 ****


