%nproc=1
%NoSave
%Mem=1900MB
#P OB98/GEN NMR

erre ene a

0 1
  C     -302.813     126.427     -38.511
  O     -301.548     127.049     -38.579
  H     -302.864     125.833     -37.595
  H     -302.943     125.756     -39.365
  H     -303.617     127.166     -38.493
  P     -301.303     128.196     -39.671
  C     -299.348     126.921     -40.773
  O     -299.755     128.092     -40.082
  C     -297.871     126.631     -40.496
  O     -297.129     127.882     -40.628
  C     -297.611     126.079     -39.079
  O     -296.513     125.159     -39.144
  C     -297.193     127.334     -38.339
  O     -296.483     127.039     -37.162
  C     -296.379     128.051     -39.412
  N     -296.171     129.457     -39.075
  C     -295.071     129.757     -38.280
  O     -294.290     128.910     -37.850
  N     -294.927     131.070     -37.925
  C     -295.819     132.068     -38.187
  O     -295.681     133.212     -37.776
  C     -296.993     131.684     -38.986
  C     -297.111     130.416     -39.394
  O     -301.757     129.566     -39.293
  O     -302.035     127.652     -40.987
  H     -297.018     126.464     -36.586
  H     -302.234     128.390     -41.595
  H     -294.128     131.304     -37.357
  H     -297.730     132.447     -39.198
  H     -297.970     130.093     -39.968
  H     -295.404     127.567     -39.552
  H     -298.077     127.917     -38.059
  H     -298.484     125.590     -38.641
  H     -297.489     125.948     -41.263
  H     -299.501     127.084     -41.847
  H     -299.965     126.074     -40.450
  P     -296.685     123.609     -38.766
  C     -295.225     123.197     -36.694
  O     -295.335     123.037     -38.105
  O     -297.222     122.764     -39.879
  O     -297.720     123.614     -37.542
  H     -298.395     122.924     -37.689
  H     -294.296     122.785     -36.360
  H     -296.034     122.688     -36.213
  H     -295.262     124.238     -36.449

 6  7  8  9  10  11  12  13  14  15  16  26  31  32  33  34  35 0
 6-311+G(2d,p)
 ****
 36  37 0
 6-311+G(2d,p)
 ****
 1  2  3  4  5  17  18  19  20  21  22  23  24  25 0
 3-21G
 ****
 27  28  29  30  38  39  40  41  42  43  44  45 0
 3-21G
 ****


