%nproc=1
%NoSave
%Mem=1900MB
#P OB98/GEN NMR

erre ene a

0 1
  C     -174.127     529.716      80.708
  O     -173.334     530.894      80.826
  P     -171.741     530.756      80.720
  C     -171.249     530.464      83.240
  O     -171.220     529.867      81.945
  C     -170.282     529.745      84.193
  O     -168.947     529.781      83.621
  C     -170.155     530.385      85.582
  O     -171.054     529.959      86.606
  C     -168.764     529.907      86.000
  O     -168.846     528.574      86.543
  C     -167.985     529.877      84.696
  N     -163.332     531.857      85.485
  C     -163.864     530.651      85.786
  N     -165.112     530.206      85.539
  C     -165.841     531.139      84.906
  C     -165.428     532.405      84.530
  C     -164.111     532.763      84.845
  N     -163.569     533.995      84.550
  N     -166.457     533.085      83.902
  C     -167.467     532.240      83.917
  N     -167.148     531.051      84.498
  O     -170.989     532.028      80.486
  O     -171.564     529.756      79.474
  H     -167.930     528.279      86.691
  H     -170.786     530.030      78.956
  H     -163.201     529.955      86.292
  H     -168.451     532.457      83.521
  H     -167.326     529.001      84.616
  H     -168.326     530.536      86.784
  H     -170.167     531.477      85.515
  H     -170.582     528.692      84.290
  H     -172.267     530.413      83.638
  H     -162.627     534.188      84.856
  H     -164.152     534.704      84.127
  H     -171.014     531.523      83.115
  P     -172.204     530.929      87.160
  C     -170.711     531.814      89.120
  O     -171.439     532.099      87.944
  O     -173.273     530.250      87.948
  O     -172.712     531.657      85.834
  H     -172.066     532.267      85.434
  H     -170.091     532.683      89.374
  H     -170.054     530.948      88.972
  H     -171.402     531.621      89.941
  H     -175.162     529.972      80.800
  H     -173.860     529.027      81.482
  H     -173.955     529.264      79.754

 3  4  5  6  7  8  9  10  11  12  22  25  29  30  31  32 0
 6-311+G(2d,p)
 ****
 33  36  37 0
 6-311+G(2d,p)
 ****
 1  2  13  14  15  16  17  18  19  20  21  23  24  26 0
 3-21G
 ****
 27  28  34  35  38  39  40  41  42  43  44  45  46  47  48 0
 3-21G
 ****


