%nproc=1
%NoSave
%Mem=1900MB
#P OB98/GEN NMR

erre ene a

0 1
  C       97.196     484.509    -173.097
  O       96.240     483.816    -173.873
  H       97.923     483.789    -172.715
  H       96.713     484.999    -172.248
  H       97.723     485.248    -173.704
  P       95.128     484.656    -174.664
  C       93.160     483.818    -173.226
  O       93.748     483.851    -174.522
  C       92.028     482.795    -173.199
  O       90.950     483.213    -174.067
  C       92.435     481.408    -173.684
  O       93.188     480.731    -172.700
  C       91.068     480.806    -173.983
  O       90.426     480.362    -172.777
  C       90.320     482.021    -174.581
  N       90.307     482.017    -176.045
  C       89.069     481.807    -176.648
  O       88.031     481.629    -176.015
  N       89.074     481.764    -178.019
  C       90.183     481.815    -178.814
  O       90.168     481.552    -180.013
  C       91.450     482.112    -178.127
  C       91.456     482.182    -176.793
  O       95.489     485.057    -176.056
  O       94.893     485.938    -173.730
  H       95.373     486.700    -174.100
  H       90.597     481.049    -172.105
  H       88.191     481.563    -178.466
  H       92.342     482.227    -178.731
  H       92.383     482.370    -176.262
  H       89.279     482.038    -174.233
  H       91.130     479.941    -174.649
  H       92.998     481.486    -174.621
  H       91.633     482.748    -172.176
  H       92.759     484.811    -173.003
  H       93.929     483.565    -172.489
  P       94.496     479.893    -173.090
  C       93.301     477.636    -173.315
  O       94.279     478.379    -172.604
  O       95.791     480.502    -172.663
  O       94.422     479.771    -174.690
  H       95.265     480.086    -175.072
  H       93.240     476.648    -172.910
  H       93.575     477.582    -174.348
  H       92.350     478.118    -173.223

 6  7  8  9  10  11  12  13  14  15  16  27  31  32  33  34  35 0
 6-311+G(2d,p)
 ****
 36  37 0
 6-311+G(2d,p)
 ****
 1  2  3  4  5  17  18  19  20  21  22  23  24  25 0
 3-21G
 ****
 26  28  29  30  38  39  40  41  42  43  44  45 0
 3-21G
 ****


