%nproc=1
%NoSave
%Mem=1900MB
#P OB98/GEN NMR

erre ene a

0 1
  C     -892.630     315.693     744.871
  O     -892.150     315.107     746.084
  P     -892.550     315.849     747.449
  C     -894.550     314.265     747.938
  O     -894.110     315.604     747.722
  C     -896.050     314.209     748.268
  O     -896.320     314.795     749.564
  C     -896.930     314.922     747.243
  O     -898.160     314.215     747.151
  C     -897.190     316.273     747.905
  O     -898.360     316.897     747.352
  C     -897.310     315.833     749.380
  N     -897.120     316.941     750.316
  C     -898.270     317.514     750.875
  O     -899.380     317.127     750.523
  N     -898.110     318.521     751.780
  C     -896.930     318.965     752.076
  N     -896.860     319.984     752.984
  C     -895.700     318.433     751.462
  C     -895.870     317.436     750.601
  O     -892.460     317.401     747.079
  O     -891.640     315.518     748.595
  H     -898.570     317.683     747.904
  H     -891.940     317.882     747.741
  H     -894.750     318.861     751.722
  H     -895.030     316.973     750.107
  H     -898.300     315.396     749.572
  H     -896.340     316.935     747.759
  H     -896.470     315.010     746.249
  H     -896.340     313.157     748.317
  H     -897.740     320.308     753.382
  H     -893.990     313.831     748.764
  H     -896.000     320.410     753.269
  H     -894.320     313.674     747.052
  P     -898.550     313.560     745.740
  C     -898.140     311.176     746.593
  O     -897.740     312.174     745.711
  O     -897.720     314.467     744.714
  O     -900.000     313.485     745.365
  H     -897.920     314.191     743.807
  H     -897.580     310.249     746.377
  H     -899.210     310.978     746.493
  H     -897.910     311.465     747.631
  H     -892.298     315.110     744.038
  H     -892.251     316.690     744.782
  H     -893.700     315.718     744.886

 3  4  5  6  7  8  9  10  11  12  13  21  23  27  28  29  30  32 0
 6-311+G(2d,p)
 ****
 34  35 0
 6-311+G(2d,p)
 ****
 1  2  14  15  16  17  18  19  20  22  24  25  26 0
 3-21G
 ****
 31  33  36  37  38  39  40  41  42  43  44  45  46 0
 3-21G
 ****


