%nproc=1
%NoSave
%Mem=1900MB
#P OB98/GEN NMR

erre ene a

0 1
  C     -236.423      63.332      81.711
  O     -236.268      63.254      80.307
  H     -236.277      62.337      82.138
  H     -237.431      63.675      81.955
  H     -235.684      64.015      82.143
  P     -236.208      64.633      79.495
  C     -234.605      65.375      77.584
  O     -235.391      64.332      78.144
  C     -233.757      64.831      76.434
  O     -232.542      64.249      76.988
  C     -234.453      63.739      75.608
  O     -234.058      63.891      74.238
  C     -233.855      62.458      76.157
  O     -233.916      61.359      75.260
  C     -232.422      62.914      76.459
  N     -231.737      62.031      77.403
  C     -231.491      60.726      76.994
  O     -231.725      60.284      75.869
  N     -230.941      59.903      77.946
  C     -230.647      60.245      79.234
  O     -230.176      59.455      80.045
  C     -230.941      61.634      79.608
  C     -231.465      62.452      78.692
  O     -235.187      65.514      80.356
  O     -237.518      65.315      79.287
  H     -235.666      66.022      81.038
  H     -233.389      61.597      74.470
  H     -230.755      58.953      77.665
  H     -230.731      61.939      80.629
  H     -231.715      63.477      78.943
  H     -231.842      62.981      75.532
  H     -234.373      62.171      77.080
  H     -235.544      63.749      75.680
  H     -233.449      65.668      75.797
  H     -233.942      65.782      78.353
  H     -235.267      66.173      77.227
  P     -235.073      64.657      73.257
  C     -234.601      65.922      71.009
  O     -234.282      64.839      71.874
  O     -235.084      66.118      73.906
  O     -236.406      63.992      73.162
  H     -234.224      66.378      74.277
  H     -233.976      65.882      70.142
  H     -234.441      66.847      71.522
  H     -235.627      65.852      70.713

 6  7  8  9  10  11  12  13  14  15  16  27  31  32  33  34  35 0
 6-311+G(2d,p)
 ****
 36  37 0
 6-311+G(2d,p)
 ****
 1  2  3  4  5  17  18  19  20  21  22  23  24  25 0
 3-21G
 ****
 26  28  29  30  38  39  40  41  42  43  44  45 0
 3-21G
 ****


