%nproc=1
%NoSave
%Mem=1900MB
#P OB98/GEN NMR

erre ene a

0 1
  C     -128.508    -133.713    -144.443
  O     -128.121    -132.491    -143.847
  H     -127.849    -134.503    -144.073
  H     -128.397    -133.649    -145.528
  H     -129.538    -133.964    -144.184
  P     -129.011    -131.185    -144.107
  C     -128.728    -130.164    -141.755
  O     -128.454    -130.029    -143.142
  C     -127.715    -131.102    -141.091
  O     -126.416    -130.455    -141.091
  C     -128.061    -131.456    -139.642
  O     -127.700    -132.815    -139.394
  C     -127.175    -130.532    -138.832
  O     -126.887    -131.056    -137.537
  C     -125.945    -130.408    -139.730
  N     -122.972    -127.980    -136.446
  C     -123.456    -129.273    -136.421
  N     -123.116    -130.027    -135.355
  N     -124.214    -129.781    -137.358
  C     -124.456    -128.919    -138.376
  C     -124.036    -127.618    -138.516
  C     -123.216    -127.061    -137.461
  O     -122.771    -125.919    -137.420
  N     -124.507    -127.065    -139.680
  C     -125.212    -128.029    -140.240
  N     -125.222    -129.171    -139.483
  O     -130.489    -131.403    -144.029
  O     -128.569    -130.689    -145.560
  H     -126.357    -130.376    -137.066
  H     -129.251    -130.897    -146.225
  H     -122.403    -127.636    -135.692
  H     -125.735    -127.954    -141.185
  H     -125.234    -131.228    -139.579
  H     -127.669    -129.561    -138.706
  H     -122.517    -129.709    -134.609
  H     -129.119    -131.312    -139.423
  H     -123.432    -130.989    -135.327
  H     -127.622    -132.005    -141.706
  H     -129.736    -130.574    -141.643
  H     -128.693    -129.176    -141.282
  P     -128.834    -133.948    -139.466
  C     -127.407    -136.079    -139.626
  O     -128.261    -135.295    -138.805
  O     -129.478    -134.126    -140.800
  O     -129.901    -133.450    -138.376
  H     -130.799    -133.688    -138.683
  H     -127.089    -136.945    -139.085
  H     -126.552    -135.500    -139.907
  H     -127.937    -136.382    -140.505

 6  7  8  9  10  11  12  13  14  15  26  29  33  34 0
 6-311+G(2d,p)
 ****
 36  38  39  40  41 0
 6-311+G(2d,p)
 ****
 1  2  3  4  5  16  17  18  19  20  21  22  23  24  25 0
 3-21G
 ****
 27  28  30  31  32  35  37  42  43  44  45  46  47 0
 3-21G
 ****
 48  49 0
 3-21G
 ****


