%nproc=1
%NoSave
%Mem=1900MB
#P OB98/GEN NMR

erre ene a

0 1
  C       78.845      -7.199     -75.168
  O       79.749      -7.943     -75.989
  P       80.229      -7.366     -77.406
  C       78.158      -8.254     -78.622
  O       78.941      -7.101     -78.334
  C       78.198      -8.662     -80.102
  O       77.447      -7.729     -80.919
  C       79.606      -8.759     -80.708
  O       79.546      -9.812     -81.675
  C       79.756      -7.408     -81.383
  O       80.788      -7.402     -82.365
  C       78.336      -7.185     -81.916
  N       78.055      -5.777     -82.185
  C       78.522      -5.256     -83.393
  O       79.193      -5.960     -84.156
  N       78.264      -3.939     -83.690
  C       77.683      -3.182     -82.809
  N       77.478      -1.881     -83.151
  C       77.248      -3.670     -81.484
  C       77.456      -4.969     -81.245
  O       81.315      -8.158     -78.068
  O       80.748      -5.887     -77.060
  H       80.878      -6.485     -82.712
  H       81.460      -5.642     -77.684
  H       76.789      -2.998     -80.772
  H       77.166      -5.417     -80.305
  H       78.176      -7.752     -82.846
  H       80.007      -6.644     -80.637
  H       80.385      -8.949     -79.964
  H       77.692      -9.631     -80.187
  H       77.814      -1.581     -84.062
  H       77.117      -8.051     -78.336
  H       77.140      -1.183     -82.501
  H       78.506      -9.087     -77.999
  P       80.066     -11.291     -81.353
  C       82.375     -10.991     -82.425
  O       81.661     -11.201     -81.218
  O       79.581     -12.347     -82.291
  O       79.586     -11.583     -79.847
  H       79.613     -12.541     -79.684
  H       83.410     -10.737     -82.183
  H       81.930     -10.172     -83.000
  H       82.361     -11.906     -83.022
  H       78.646      -7.746     -74.270
  H       77.930      -7.040     -75.699
  H       79.283      -6.254     -74.921

 3  4  5  6  7  8  9  10  11  12  13  23  27  28  29  30  32 0
 6-311+G(2d,p)
 ****
 34  35 0
 6-311+G(2d,p)
 ****
 1  2  14  15  16  17  18  19  20  21  22  24  25  26 0
 3-21G
 ****
 31  33  36  37  38  39  40  41  42  43  44  45  46 0
 3-21G
 ****


