%nproc=1
%NoSave
%Mem=1900MB
#P OB98/GEN NMR

erre ene a

0 1
  C     -148.230    -276.810     810.453
  O     -148.834    -277.373     809.310
  P     -150.436    -277.414     809.165
  C     -150.257    -278.996     807.133
  O     -150.760    -278.828     808.450
  C     -150.248    -280.474     806.750
  O     -149.323    -281.219     807.570
  C     -151.595    -281.173     806.917
  O     -152.472    -280.838     805.854
  C     -151.173    -282.632     806.948
  O     -150.988    -283.154     805.619
  C     -149.818    -282.569     807.690
  N     -149.932    -282.977     809.089
  C     -150.246    -284.316     809.308
  O     -150.451    -285.083     808.349
  N     -150.395    -284.772     810.602
  C     -150.233    -283.934     811.589
  N     -150.396    -284.439     812.845
  C     -149.935    -282.502     811.400
  C     -149.801    -282.091     810.138
  O     -151.043    -276.220     808.525
  O     -150.920    -277.657     810.677
  H     -151.878    -283.279     805.241
  H     -150.834    -276.834     811.214
  H     -149.832    -281.842     812.250
  H     -149.570    -281.057     809.903
  H     -149.071    -283.214     807.204
  H     -151.913    -283.275     807.438
  H     -152.032    -280.900     807.885
  H     -149.909    -280.559     805.704
  H     -150.635    -285.418     812.929
  H     -149.229    -278.614     807.102
  H     -150.344    -283.860     813.677
  H     -150.865    -278.416     806.433
  P     -154.032    -281.191     805.973
  C     -153.776    -282.190     803.610
  O     -154.345    -282.348     804.899
  O     -154.962    -280.026     805.934
  O     -154.137    -281.964     807.376
  H     -154.912    -281.634     807.862
  H     -153.767    -283.156     803.102
  H     -152.748    -281.826     803.680
  H     -154.369    -281.484     803.031
  H     -147.166    -276.876     810.363
  H     -148.548    -277.344     811.324
  H     -148.517    -275.783     810.539

 3  4  5  6  7  8  9  10  11  12  13  23  27  28  29  30  32 0
 6-311+G(2d,p)
 ****
 34  35 0
 6-311+G(2d,p)
 ****
 1  2  14  15  16  17  18  19  20  21  22  24  25  26 0
 3-21G
 ****
 31  33  36  37  38  39  40  41  42  43  44  45  46 0
 3-21G
 ****


