%nproc=1
%NoSave
%Mem=1900MB
#P OB98/GEN NMR

erre ene a

0 1
  C      -79.396     208.254      90.665
  O      -80.667     208.455      90.078
  H      -78.631     208.401      89.899
  H      -79.308     207.236      91.055
  H      -79.230     208.977      91.468
  P      -81.969     208.219      90.979
  C      -82.727     206.094      89.712
  O      -83.023     207.444      90.053
  C      -83.478     205.682      88.446
  O      -84.901     205.802      88.648
  C      -83.157     206.538      87.226
  O      -81.889     206.203      86.702
  C      -84.342     206.206      86.335
  O      -84.166     204.931      85.697
  C      -85.492     206.144      87.371
  N      -86.255     207.383      87.469
  C      -87.635     207.276      87.266
  O      -88.141     206.183      87.007
  N      -88.399     208.415      87.346
  C      -87.847     209.549      87.644
  N      -88.660     210.636      87.711
  C      -86.403     209.699      87.899
  C      -85.672     208.591      87.785
  O      -82.524     209.427      91.669
  O      -81.515     207.097      92.026
  H      -85.027     204.711      85.290
  H      -81.199     207.510      92.853
  H      -85.985     210.662      88.154
  H      -84.599     208.615      87.958
  H      -86.190     205.335      87.120
  H      -84.486     206.941      85.543
  H      -83.207     207.602      87.485
  H      -83.259     204.624      88.253
  H      -89.649     210.479      87.546
  H      -83.042     205.471      90.555
  H      -88.372     211.526      88.089
  H      -81.648     205.960      89.570
  P      -80.622     207.169      86.886
  C      -80.059     207.101      84.379
  O      -79.615     206.799      85.692
  O      -80.014     207.163      88.247
  O      -81.174     208.603      86.439
  H      -81.728     208.998      87.159
  H      -79.309     206.811      83.673
  H      -80.239     208.152      84.297
  H      -80.964     206.567      84.177

 6  7  8  9  10  11  12  13  14  15  16  26  30  31  32  33  35 0
 6-311+G(2d,p)
 ****
 37  38 0
 6-311+G(2d,p)
 ****
 1  2  3  4  5  17  18  19  20  21  22  23  24  25 0
 3-21G
 ****
 27  28  29  34  36  39  40  41  42  43  44  45  46 0
 3-21G
 ****


