%nproc=1
%NoSave
%Mem=1900MB
#P OB98/GEN NMR

erre ene a

0 1
  C      -27.543     -45.123     -52.482
  O      -28.328     -44.830     -53.644
  P      -27.608     -45.066     -55.064
  C      -26.678     -42.674     -55.468
  O      -26.381     -44.034     -55.176
  C      -25.612     -42.036     -56.360
  O      -26.049     -40.711     -56.753
  C      -24.235     -41.878     -55.704
  O      -23.225     -42.112     -56.697
  C      -24.185     -40.405     -55.345
  O      -22.849     -39.929     -55.206
  C      -24.957     -39.808     -56.518
  N      -24.074     -34.867     -57.131
  C      -23.402     -35.954     -57.652
  N      -22.330     -35.685     -58.429
  N      -23.750     -37.195     -57.434
  C      -24.861     -37.313     -56.667
  C      -25.619     -36.313     -56.100
  C      -25.196     -34.947     -56.317
  O      -25.718     -33.942     -55.839
  N      -26.673     -36.827     -55.384
  C      -26.546     -38.133     -55.511
  N      -25.459     -38.476     -56.273
  O      -28.681     -44.511     -56.112
  O      -27.268     -46.493     -55.335
  H      -22.396     -40.097     -56.054
  H      -28.906     -45.207     -56.759
  H      -23.751     -33.934     -57.314
  H      -27.193     -38.870     -55.058
  H      -24.342     -39.779     -57.426
  H      -24.707     -40.245     -54.393
  H      -22.047     -34.754     -58.690
  H      -24.067     -42.529     -54.841
  H      -21.853     -36.468     -58.857
  H      -25.530     -42.633     -57.276
  H      -26.747     -42.111     -54.533
  H      -27.657     -42.628     -55.957
  P      -22.334     -43.433     -56.510
  C      -20.240     -42.172     -55.623
  O      -21.281     -43.090     -55.354
  O      -21.442     -43.468     -57.838
  O      -23.127     -44.684     -56.325
  H      -21.188     -44.385     -58.050
  H      -20.393     -41.639     -56.565
  H      -19.293     -42.714     -55.673
  H      -20.191     -41.444     -54.810
  H      -28.121     -44.930     -51.603
  H      -26.669     -44.505     -52.477
  H      -27.252     -46.153     -52.498

 3  4  5  6  7  8  9  10  11  12  23  26  30  31  33  0
 6-311+G(2d,p)
 ****
 35  36  37  38 0
 6-311+G(2d,p)
 ****
 1  2  13  14  15  16  17  18  19  20  21  22  24  25  27  28  29 0
 3-21G
 ****
 32  34  39  40  41  42  43  44  45  46  47  48  49 0
 3-21G
 ****


