%nproc=1
%NoSave
%Mem=1900MB
#P OB98/GEN NMR

erre ene a

0 1
  C     -151.645     114.424     121.418
  O     -151.767     113.695     122.643
  P     -151.778     114.522     124.017
  C     -150.207     116.255     125.158
  O     -150.589     115.600     123.959
  C     -149.183     117.357     124.861
  O     -147.914     116.803     124.436
  C     -149.614     118.309     123.752
  O     -150.477     119.328     124.239
  C     -148.277     118.916     123.352
  O     -147.909     119.951     124.285
  C     -147.324     117.716     123.475
  N     -145.269     118.089     118.865
  C     -145.281     118.991     119.911
  N     -144.640     120.165     119.699
  N     -145.863     118.767     121.059
  C     -146.449     117.548     121.134
  C     -146.508     116.566     120.167
  C     -145.870     116.835     118.896
  O     -145.841     116.079     117.925
  N     -147.192     115.465     120.613
  C     -147.534     115.768     121.850
  N     -147.118     117.028     122.210
  O     -151.235     113.455     125.081
  O     -153.119     115.055     124.401
  H     -148.603     120.636     124.231
  H     -151.587     113.659     125.968
  H     -144.812     118.315     117.999
  H     -148.073     115.111     122.523
  H     -146.335     118.003     123.851
  H     -148.311     119.381     122.362
  H     -144.130     120.385     118.858
  H     -150.051     117.761     122.905
  H     -144.610     120.826     120.468
  H     -149.017     117.931     125.784
  H     -149.783     115.537     125.868
  H     -151.100     116.661     125.643
  P     -151.960     119.402     123.628
  C     -152.855     120.293     121.356
  O     -151.872     120.391     122.373
  O     -152.757     120.245     124.733
  O     -152.601     118.076     123.377
  H     -153.691     119.962     124.760
  H     -152.736     121.136     120.672
  H     -153.861     120.319     121.781
  H     -152.716     119.361     120.792
  H     -151.653     113.741     120.594
  H     -150.726     114.971     121.419
  H     -152.465     115.105     121.325

 3  4  5  6  7  8  9  10  11  12  23  26  30  31 0
 6-311+G(2d,p)
 ****
 33  35  36  37  38 0
 6-311+G(2d,p)
 ****
 1  2  13  14  15  16  17  18  19  20  21  22  24  25 0
 3-21G
 ****
 27  28  29  32  34  39  40  41  42  43  44  45  46  47  48  49 0
 3-21G
 ****


