%nproc=1
%NoSave
%Mem=1900MB
#P OB98/GEN NMR

erre ene a

0 1
  C       34.672      -1.342     -24.346
  O       35.219      -2.255     -23.419
  H       35.369      -0.511     -24.473
  H       33.727      -0.949     -23.964
  H       34.512      -1.814     -25.319
  P       34.546      -3.700     -23.265
  C       35.485      -5.909     -22.321
  O       35.422      -4.497     -22.181
  C       36.700      -6.476     -21.581
  O       37.910      -6.059     -22.276
  C       36.819      -6.003     -20.124
  O       37.449      -7.055     -19.383
  C       37.757      -4.820     -20.261
  O       38.328      -4.465     -19.022
  C       38.724      -5.344     -21.326
  N       39.495      -4.274     -21.957
  C       40.583      -3.789     -21.244
  O       40.890      -4.194     -20.122
  N       41.293      -2.783     -21.839
  C       40.985      -2.186     -23.026
  O       41.638      -1.264     -23.498
  C       39.796      -2.710     -23.717
  C       39.117      -3.717     -23.162
  O       34.303      -4.441     -24.537
  O       33.185      -3.418     -22.470
  H       37.633      -4.156     -18.404
  H       32.506      -4.073     -22.724
  H       42.091      -2.426     -21.339
  H       39.520      -2.253     -24.657
  H       38.238      -4.126     -23.646
  H       39.435      -6.058     -20.887
  H       37.219      -3.943     -20.634
  H       35.859      -5.740     -19.677
  H       36.664      -7.571     -21.638
  H       35.560      -6.139     -23.389
  H       34.567      -6.356     -21.926
  P       36.818      -7.641     -18.029
  C       37.597      -9.494     -16.418
  O       37.981      -8.355     -17.185
  O       35.604      -8.486     -18.234
  O       36.465      -6.348     -17.152
  H       35.718      -6.549     -16.558
  H       38.451      -9.881     -15.903
  H       37.202     -10.246     -17.069
  H       36.850      -9.210     -15.707

 6  7  8  9  10  11  12  13  14  15  16  26  31  32  33  34  35 0
 6-311+G(2d,p)
 ****
 36  37 0
 6-311+G(2d,p)
 ****
 1  2  3  4  5  17  18  19  20  21  22  23  24  25 0
 3-21G
 ****
 27  28  29  30  38  39  40  41  42  43  44  45 0
 3-21G
 ****


