%nproc=1
%NoSave
%Mem=1900MB
#P OB98/GEN NMR

erre ene a

0 1
  C     1370.766     368.587    -418.184
  O     1371.444     369.666    -417.570
  H     1369.950     368.966    -418.809
  H     1371.476     368.044    -418.819
  H     1370.370     367.901    -417.435
  P     1370.581     370.593    -416.582
  C     1372.355     372.444    -417.022
  O     1370.965     372.104    -416.948
  C     1372.562     373.479    -418.132
  O     1372.164     372.944    -419.399
  C     1371.740     374.767    -417.961
  O     1372.344     375.668    -417.040
  C     1371.768     375.301    -419.387
  O     1373.060     375.926    -419.629
  C     1371.611     374.029    -420.209
  N     1367.533     375.540    -422.910
  C     1368.768     376.059    -422.750
  N     1369.786     375.598    -422.023
  C     1369.464     374.475    -421.389
  C     1368.239     373.809    -421.439
  C     1367.240     374.399    -422.246
  N     1365.978     373.848    -422.378
  N     1368.242     372.695    -420.624
  C     1369.474     372.665    -420.127
  N     1370.245     373.725    -420.539
  O     1371.288     370.373    -415.145
  O     1369.113     370.308    -416.532
  H     1373.726     375.331    -419.254
  H     1370.674     370.625    -414.435
  H     1368.964     376.998    -423.308
  H     1369.840     371.904    -419.449
  H     1372.183     374.064    -421.147
  H     1371.008     376.069    -419.560
  H     1370.694     374.544    -417.678
  H     1373.641     373.713    -418.176
  H     1372.928     371.550    -417.258
  H     1365.287     374.433    -422.844
  H     1365.707     373.092    -421.795
  H     1372.678     372.855    -416.059
  P     1371.386     376.355    -415.950
  C     1373.010     378.394    -415.974
  O     1371.659     377.940    -416.055
  O     1372.074     375.959    -414.554
  O     1369.957     375.936    -416.011
  H     1371.409     375.929    -413.839
  H     1373.034     379.460    -416.059
  H     1373.580     377.960    -416.769
  H     1373.429     378.101    -415.034

 6  7  8  9  10  11  12  13  14  15  25  28  32  33  34  35 0
 6-311+G(2d,p)
 ****
 36  39  40 0
 6-311+G(2d,p)
 ****
 1  2  3  4  5  16  17  18  19  20  21  22  23  24 0
 3-21G
 ****
 26  27  29  30  31  37  38  41  42  43  44  45  46  47 0
 3-21G
 ****
 48 0
 3-21G
 ****


