%nproc=1
%NoSave
%Mem=1900MB
#P OB98/GEN NMR

erre ene a

0 1
  C     1053.415    -106.389      14.798
  O     1054.444    -107.149      15.401
  H     1053.817    -105.893      13.909
  H     1053.061    -105.625      15.495
  H     1052.583    -107.033      14.498
  P     1054.027    -108.145      16.589
  C     1055.144    -110.227      15.505
  O     1055.123    -109.325      16.603
  C     1056.531    -110.871      15.390
  O     1057.429    -109.920      14.744
  C     1057.153    -111.252      16.739
  O     1057.897    -112.463      16.568
  C     1058.121    -110.105      17.000
  O     1059.178    -110.438      17.894
  C     1058.600    -109.793      15.583
  N     1059.193    -108.461      15.467
  C     1060.567    -108.357      15.621
  O     1061.335    -109.304      15.764
  N     1061.067    -107.073      15.602
  C     1060.342    -105.928      15.469
  O     1060.846    -104.812      15.482
  C     1058.893    -106.106      15.320
  C     1058.382    -107.346      15.330
  O     1052.718    -108.859      16.017
  O     1053.796    -107.504      17.917
  H     1051.912    -108.354      16.253
  H     1059.778    -111.066      17.429
  H     1062.068    -106.978      15.715
  H     1058.279    -105.215      15.233
  H     1057.316    -107.507      15.238
  H     1059.323    -110.546      15.249
  H     1057.580    -109.249      17.424
  H     1056.427    -111.370      17.553
  H     1056.457    -111.744      14.730
  H     1054.934    -109.682      14.579
  H     1054.380    -110.997      15.657
  P     1058.431    -113.193      17.901
  C     1057.096    -115.443      17.789
  O     1058.332    -114.761      17.591
  O     1057.225    -112.904      18.915
  O     1059.770    -112.693      18.341
  H     1056.356    -112.901      18.478
  H     1057.213    -116.475      17.534
  H     1056.343    -115.005      17.167
  H     1056.803    -115.360      18.815

 6  7  8  9  10  11  12  13  14  15  16  27  31  32  33  34  35 0
 6-311+G(2d,p)
 ****
 36  37 0
 6-311+G(2d,p)
 ****
 1  2  3  4  5  17  18  19  20  21  22  23  24  25 0
 3-21G
 ****
 26  28  29  30  38  39  40  41  42  43  44  45 0
 3-21G
 ****


