%nproc=1
%NoSave
%Mem=1900MB
#P OB98/GEN NMR

erre ene a

0 1
  C     -282.826    -172.603      67.073
  O     -281.800    -173.283      67.772
  P     -280.896    -174.319      66.949
  C     -278.728    -174.169      68.390
  O     -279.840    -174.950      67.974
  C     -278.078    -174.811      69.618
  O     -278.725    -174.355      70.826
  C     -278.187    -176.330      69.643
  O     -277.229    -176.932      68.789
  C     -277.959    -176.631      71.118
  O     -276.558    -176.670      71.426
  C     -278.634    -175.420      71.797
  N     -279.935    -175.748      72.368
  C     -280.200    -175.219      73.626
  O     -279.387    -174.530      74.246
  N     -281.414    -175.537      74.168
  C     -282.348    -176.364      73.614
  O     -283.397    -176.659      74.174
  C     -282.001    -176.920      72.294
  C     -280.828    -176.598      71.745
  O     -280.000    -173.384      66.008
  O     -281.666    -175.323      66.159
  H     -276.480    -176.518      72.390
  H     -279.852    -173.821      65.148
  H     -281.636    -175.144      75.068
  H     -282.719    -177.580      71.825
  H     -280.549    -177.007      70.780
  H     -277.994    -175.037      72.602
  H     -278.380    -177.596      71.411
  H     -279.205    -176.636      69.367
  H     -277.026    -174.500      69.655
  H     -279.067    -173.159      68.638
  H     -278.010    -174.101      67.567
  P     -277.682    -178.268      68.018
  C     -276.458    -178.004      65.725
  O     -276.481    -178.591      67.008
  O     -278.862    -177.698      67.099
  O     -278.085    -179.365      68.945
  H     -278.702    -176.779      66.825
  H     -276.858    -176.988      65.744
  H     -277.046    -178.615      65.037
  H     -275.423    -177.969      65.372
  H     -283.343    -171.950      67.745
  H     -283.514    -173.315      66.668
  H     -282.397    -172.030      66.278

 3  4  5  6  7  8  9  10  11  12  13  23  28  29  30  31  32 0
 6-311+G(2d,p)
 ****
 33  34 0
 6-311+G(2d,p)
 ****
 1  2  14  15  16  17  18  19  20  21  22  24  25  26 0
 3-21G
 ****
 27  35  36  37  38  39  40  41  42  43  44  45 0
 3-21G
 ****


