%nproc=1
%NoSave
%Mem=1900MB
#P OB98/GEN NMR

erre ene a

0 1
  C      -76.410     -78.814    -273.302
  O      -76.315     -77.409    -273.453
  H      -76.504     -79.280    -274.286
  H      -75.494     -79.178    -272.830
  H      -77.264     -79.082    -272.675
  P      -77.658     -76.621    -273.849
  C      -76.355     -75.144    -275.541
  O      -77.194     -75.181    -274.396
  C      -75.022     -74.472    -275.204
  O      -74.153     -75.457    -274.566
  C      -74.271     -73.905    -276.425
  O      -73.659     -72.666    -276.041
  C      -73.185     -74.937    -276.676
  O      -72.054     -74.390    -277.346
  C      -72.889     -75.414    -275.254
  N      -68.420     -77.772    -275.836
  C      -68.733     -76.480    -275.596
  N      -69.954     -75.943    -275.398
  C      -70.904     -76.899    -275.401
  C      -70.736     -78.257    -275.632
  C      -69.422     -78.686    -275.875
  N      -69.098     -79.989    -276.193
  N      -71.960     -78.901    -275.614
  C      -72.848     -77.949    -275.408
  N      -72.260     -76.723    -275.276
  O      -78.299     -76.293    -272.415
  O      -78.608     -77.367    -274.726
  H      -71.320     -75.033    -277.302
  H      -78.860     -77.038    -272.130
  H      -67.898     -75.788    -275.561
  H      -73.918     -78.087    -275.377
  H      -72.224     -74.731    -274.713
  H      -73.593     -75.752    -277.290
  H      -74.912     -73.745    -277.298
  H      -75.208     -73.685    -274.463
  H      -76.851     -74.570    -276.331
  H      -68.141     -80.183    -276.456
  H      -69.840     -80.660    -276.332
  H      -76.187     -76.166    -275.901
  P      -73.922     -71.393    -276.982
  C      -71.403     -70.900    -277.456
  O      -72.637     -70.437    -276.911
  O      -75.042     -70.572    -276.185
  O      -74.373     -71.745    -278.363
  H      -75.630     -70.113    -276.811
  H      -70.652     -70.148    -277.329
  H      -71.528     -71.106    -278.499
  H      -71.102     -71.793    -276.950

 6  7  8  9  10  11  12  13  14  15  25  28  32  33  34  35 0
 6-311+G(2d,p)
 ****
 36  39  40 0
 6-311+G(2d,p)
 ****
 1  2  3  4  5  16  17  18  19  20  21  22  23  24 0
 3-21G
 ****
 26  27  29  30  31  37  38  41  42  43  44  45  46  47 0
 3-21G
 ****
 48 0
 3-21G
 ****


