%nproc=1
%NoSave
%Mem=1900MB
#P OB98/GEN NMR

erre ene a

0 1
  C      466.944      22.625      94.136
  O      467.445      23.505      95.121
  H      467.081      21.597      94.482
  H      467.479      22.751      93.190
  H      465.874      22.801      93.984
  P      467.595      25.060      94.741
  C      466.797      26.160      96.939
  O      466.463      25.820      95.593
  C      465.535      26.382      97.779
  O      464.785      25.152      97.879
  C      465.819      26.792      99.216
  O      466.355      28.091      99.349
  C      464.516      26.440      99.920
  O      463.535      27.470      99.848
  C      464.039      25.207      99.113
  N      464.163      23.970      99.878
  C      463.370      23.878     101.015
  O      462.612      24.779     101.389
  N      463.492      22.730     101.744
  C      464.362      21.707     101.475
  O      464.457      20.715     102.191
  C      465.196      21.871     100.274
  C      465.061      22.977      99.540
  O      467.565      25.377      93.276
  O      468.951      25.499      95.467
  H      462.772      27.177     100.386
  H      469.292      26.350      95.101
  H      462.917      22.638     102.567
  H      465.895      21.081     100.031
  H      465.666      23.124      98.648
  H      462.986      25.324      98.832
  H      464.679      26.228     100.981
  H      466.579      26.112      99.618
  H      464.908      27.123      97.272
  H      467.379      27.089      96.913
  H      467.415      25.368      97.376
  P      467.886      28.375      99.716
  C      468.160      29.775      97.542
  O      468.671      28.727      98.357
  O      468.529      27.444     100.696
  O      467.779      29.823     100.425
  H      468.455      29.856     101.126
  H      468.783      29.892      96.680
  H      468.149      30.688      98.100
  H      467.165      29.533      97.233

 6  7  8  9  10  11  12  13  14  15  16  26  31  32  33  34  35 0
 6-311+G(2d,p)
 ****
 36  37 0
 6-311+G(2d,p)
 ****
 1  2  3  4  5  17  18  19  20  21  22  23  24  25 0
 3-21G
 ****
 27  28  29  30  38  39  40  41  42  43  44  45 0
 3-21G
 ****


