%nproc=1
%NoSave
%Mem=1900MB
#P OB98/GEN NMR

erre ene a

0 1
  C      850.983     179.096      91.222
  O      851.652     180.026      92.085
  P      852.338     181.308      91.422
  C      850.316     182.794      92.121
  O      851.186     182.380      91.079
  C      849.940     184.271      91.948
  O      851.100     185.127      92.044
  C      849.317     184.592      90.601
  O      847.927     184.279      90.570
  C      849.518     186.102      90.530
  O      848.506     186.759      91.315
  C      850.888     186.277      91.178
  N      853.282     189.202      87.730
  C      852.197     189.423      88.493
  N      851.608     188.587      89.374
  C      852.270     187.422      89.437
  C      853.398     187.052      88.721
  C      853.916     188.011      87.831
  N      855.027     187.781      87.051
  N      853.791     185.777      89.046
  C      852.926     185.378      89.958
  N      851.984     186.338      90.222
  O      852.781     180.781      89.977
  O      853.497     181.847      92.190
  H      848.763     187.697      91.390
  H      853.612     181.217      89.707
  H      851.727     190.396      88.384
  H      852.946     184.414      90.453
  H      850.952     187.175      91.797
  H      849.431     186.487      89.512
  H      849.855     184.096      89.780
  H      849.238     184.542      92.752
  H      850.784     182.637      93.095
  H      855.355     188.524      86.455
  H      855.507     186.904      87.137
  H      849.418     182.164      92.105
  P      847.511     182.775      90.210
  C      846.713     182.336      92.636
  O      847.566     181.958      91.587
  O      848.781     182.242      89.376
  O      846.242     182.659      89.435
  H      848.498     181.574      88.726
  H      846.662     181.522      93.364
  H      845.702     182.547      92.268
  H      847.108     183.224      93.143
  H      850.577     178.296      91.806
  H      851.681     178.701      90.513
  H      850.192     179.596      90.703

 3  4  5  6  7  8  9  10  11  12  22  25  29  30  31  32 0
 6-311+G(2d,p)
 ****
 33  36  37 0
 6-311+G(2d,p)
 ****
 1  2  13  14  15  16  17  18  19  20  21  23  24  26 0
 3-21G
 ****
 27  28  34  35  38  39  40  41  42  43  44  45  46  47  48 0
 3-21G
 ****


