%nproc=1
%NoSave
%Mem=1900MB
#P OB98/GEN NMR

erre ene a

0 1
  C      811.301     121.682     234.879
  O      810.778     122.760     234.123
  H      812.369     121.845     235.034
  H      811.167     120.745     234.322
  H      810.800     121.616     235.846
  P      809.185     122.830     233.984
  C      809.559     122.268     231.448
  O      808.853     123.025     232.424
  C      809.489     122.962     230.087
  O      808.169     122.840     229.515
  C      809.711     124.459     230.147
  O      811.070     124.803     230.381
  C      809.223     124.877     228.764
  O      810.247     124.729     227.772
  C      808.065     123.880     228.521
  N      806.768     124.548     228.543
  C      806.169     124.735     227.292
  O      806.725     124.326     226.276
  N      804.979     125.416     227.230
  C      804.448     125.889     228.318
  N      803.279     126.574     228.182
  C      805.043     125.713     229.657
  C      806.198     125.040     229.695
  O      808.842     124.260     234.614
  O      808.456     121.698     234.612
  H      810.511     123.786     227.791
  H      809.389     124.981     234.267
  H      804.558     126.116     230.530
  H      806.713     124.863     230.642
  H      808.179     123.396     227.540
  H      808.920     125.927     228.751
  H      809.050     124.923     230.897
  H      810.202     122.479     229.415
  H      802.925     126.717     227.243
  H      809.148     121.255     231.377
  H      802.819     127.052     228.948
  H      810.598     122.181     231.777
  P      811.668     124.861     231.864
  C      812.312     127.351     231.866
  O      812.793     126.009     231.871
  O      812.133     123.553     232.427
  O      810.488     125.540     232.712
  H      810.230     126.431     232.409
  H      813.141     128.027     231.871
  H      811.710     127.518     232.735
  H      811.723     127.516     230.988

 6  7  8  9  10  11  12  13  14  15  16  26  30  31  32  33  35 0
 6-311+G(2d,p)
 ****
 37  38 0
 6-311+G(2d,p)
 ****
 1  2  3  4  5  17  18  19  20  21  22  23  24  25 0
 3-21G
 ****
 27  28  29  34  36  39  40  41  42  43  44  45  46 0
 3-21G
 ****


