%nproc=1
%NoSave
%Mem=1900MB
#P OB98/GEN NMR

erre ene a

0 1
  C      179.787     -61.480    -290.534
  O      180.436     -61.483    -289.280
  P      179.753     -62.135    -287.986
  C      178.916     -59.866    -287.089
  O      178.546     -61.155    -287.564
  C      178.231     -59.576    -285.747
  O      176.788     -59.516    -285.963
  C      178.502     -60.661    -284.685
  O      179.000     -60.168    -283.440
  C      177.176     -61.402    -284.614
  O      176.989     -62.133    -283.415
  C      176.178     -60.272    -284.899
  N      174.855     -60.776    -285.259
  C      173.883     -60.785    -284.259
  O      174.064     -60.390    -283.111
  N      172.677     -61.329    -284.599
  C      172.383     -61.958    -285.776
  O      171.316     -62.510    -285.978
  C      173.458     -61.955    -286.781
  C      174.618     -61.356    -286.490
  O      180.682     -62.474    -286.876
  O      178.961     -63.391    -288.589
  H      176.160     -62.641    -283.503
  H      178.288     -63.172    -289.256
  H      171.962     -61.341    -283.887
  H      173.261     -62.456    -287.717
  H      175.431     -61.338    -287.214
  H      176.072     -59.607    -284.042
  H      177.150     -62.130    -285.437
  H      179.289     -61.357    -285.022
  H      178.574     -58.594    -285.403
  H      178.602     -59.114    -287.822
  H      180.006     -59.800    -286.997
  P      180.310     -60.692    -282.696
  C      179.038     -62.241    -281.032
  O      179.987     -62.136    -282.077
  O      180.941     -59.736    -281.752
  O      181.314     -61.041    -283.898
  H      182.233     -60.930    -283.602
  H      179.293     -63.109    -280.412
  H      178.043     -62.393    -281.459
  H      179.036     -61.349    -280.402
  H      180.411     -60.999    -291.258
  H      178.860     -60.951    -290.455
  H      179.597     -62.488    -290.840

 3  4  5  6  7  8  9  10  11  12  13  23  28  29  30  31  32 0
 6-311+G(2d,p)
 ****
 33  34 0
 6-311+G(2d,p)
 ****
 1  2  14  15  16  17  18  19  20  21  22  24  25  26  27 0
 3-21G
 ****
 35  36  37  38  39  40  41  42  43  44  45 0
 3-21G
 ****


