%nproc=1
%NoSave
%Mem=1900MB
#P OB98/GEN NMR

erre ene a

0 1
  C     -339.765     280.153     -88.765
  O     -340.900     279.293     -88.693
  P     -341.074     278.163     -89.813
  C     -343.479     279.102     -90.411
  O     -342.619     278.003     -90.191
  C     -344.917     278.701     -90.036
  O     -344.970     278.243     -88.669
  C     -345.912     279.848     -90.166
  O     -346.425     279.961     -91.480
  C     -346.960     279.474     -89.136
  O     -347.823     278.445     -89.650
  C     -346.074     278.920     -87.995
  N     -345.517     279.875     -87.014
  C     -346.378     280.601     -86.194
  O     -347.601     280.512     -86.222
  N     -345.778     281.454     -85.301
  C     -344.446     281.528     -85.032
  O     -343.970     282.269     -84.175
  C     -343.591     280.631     -85.816
  C     -344.152     279.872     -86.760
  O     -340.731     276.807     -89.043
  O     -340.215     278.353     -91.024
  H     -348.565     278.351     -89.023
  H     -339.924     276.400     -89.416
  H     -346.385     282.044     -84.749
  H     -342.531     280.624     -85.599
  H     -343.530     279.207     -87.351
  H     -346.618     278.159     -87.420
  H     -347.603     280.320     -88.899
  H     -345.448     280.789     -89.847
  H     -345.225     277.868     -90.680
  H     -343.439     279.421     -91.452
  H     -343.150     279.950     -89.802
  P     -346.199     281.314     -92.309
  C     -348.687     281.818     -92.682
  O     -347.470     281.440     -93.290
  O     -344.866     281.471     -92.962
  O     -346.483     282.469     -91.234
  H     -345.641     282.789     -90.836
  H     -349.424     282.022     -93.469
  H     -348.550     282.729     -92.086
  H     -349.060     281.013     -92.044
  H     -339.792     280.848     -87.952
  H     -339.781     280.687     -89.692
  H     -338.871     279.569     -88.705

 3  4  5  6  7  8  9  10  11  12  13  23  28  29  30  31  32 0
 6-311+G(2d,p)
 ****
 33  34 0
 6-311+G(2d,p)
 ****
 1  2  14  15  16  17  18  19  20  21  22  24  25  26  27 0
 3-21G
 ****
 35  36  37  38  39  40  41  42  43  44  45 0
 3-21G
 ****


