%nproc=1
%NoSave
%Mem=1900MB
#P OB98/GEN NMR

erre ene a

0 1
  C      196.366     -57.753     140.282
  O      197.351     -56.805     140.635
  P      197.945     -56.666     142.112
  C      200.484     -56.936     141.628
  O      199.307     -57.516     142.189
  C      201.533     -56.563     142.687
  O      201.069     -55.423     143.439
  C      201.694     -57.709     143.691
  O      202.547     -58.800     143.398
  C      201.963     -57.027     145.028
  O      203.356     -56.984     145.354
  C      201.419     -55.613     144.821
  N      199.506     -55.418     149.513
  C      200.827     -55.508     149.114
  N      201.723     -55.765     150.094
  N      201.219     -55.378     147.874
  C      200.201     -55.217     147.000
  C      198.853     -55.097     147.276
  C      198.440     -55.204     148.653
  O      197.272     -55.213     149.039
  N      198.102     -55.021     146.130
  C      198.984     -55.133     145.159
  N      200.264     -55.294     145.636
  O      196.970     -56.775     143.243
  O      198.492     -55.148     142.091
  H      203.791     -56.382     144.726
  H      198.368     -54.780     142.989
  H      199.256     -55.604     150.475
  H      198.747     -55.134     144.102
  H      202.185     -54.862     145.053
  H      201.472     -57.571     145.847
  H      201.443     -56.018     151.029
  H      200.707     -58.169     143.809
  H      202.667     -56.007     149.816
  H      202.469     -56.251     142.220
  H      200.176     -56.051     141.061
  H      200.927     -57.635     140.915
  P      202.414     -60.288     143.964
  C      201.125     -60.741     141.802
  O      201.222     -61.020     143.188
  O      201.813     -60.099     145.439
  O      203.695     -61.055     144.020
  H      202.022     -60.880     145.981
  H      200.135     -61.033     141.448
  H      201.881     -61.319     141.257
  H      201.276     -59.673     141.606
  H      196.131     -57.653     139.243
  H      195.485     -57.586     140.865
  H      196.736     -58.739     140.470

 3  4  5  6  7  8  9  10  11  12  23  26  30  31 0
 6-311+G(2d,p)
 ****
 33  35  36  37  38 0
 6-311+G(2d,p)
 ****
 1  2  13  14  15  16  17  18  19  20  21  22  24  25 0
 3-21G
 ****
 27  28  29  32  34  39  40  41  42  43  44  45  46  47  48  49 0
 3-21G
 ****


