%nproc=1
%NoSave
%Mem=1900MB
#P OB98/GEN NMR

erre ene a

0 1
  C       19.117     175.549      -0.536
  O       18.080     174.667      -0.155
  H       19.619     175.141      -1.417
  H       19.851     175.660       0.266
  H       18.701     176.528      -0.794
  P       17.361     174.913       1.259
  C       15.625     173.162       0.490
  O       16.496     173.587       1.537
  C       14.587     172.166       1.012
  O       15.226     170.926       1.374
  C       13.873     172.629       2.272
  O       12.998     173.718       2.073
  C       13.335     171.324       2.841
  O       12.073     170.948       2.298
  C       14.418     170.312       2.397
  N       15.223     169.845       3.520
  C       15.273     168.467       3.699
  O       14.668     167.668       2.985
  N       16.013     168.030       4.761
  C       16.650     168.822       5.671
  O       17.265     168.369       6.629
  C       16.540     170.272       5.446
  C       15.842     170.712       4.395
  O       16.576     176.184       1.379
  O       18.555     174.792       2.317
  H       11.396     171.498       2.738
  H       18.299     175.181       3.188
  H       16.070     167.034       4.901
  H       17.030     170.931       6.149
  H       15.745     171.779       4.209
  H       13.948     169.434       1.935
  H       13.212     171.382       3.925
  H       14.632     172.981       2.981
  H       13.873     171.959       0.206
  H       16.239     172.675      -0.275
  H       15.131     174.032       0.046
  P       12.493     174.666       3.256
  C       11.629     176.746       1.963
  O       11.291     175.574       2.695
  O       13.547     175.313       4.095
  O       11.711     173.611       4.194
  H       11.834     173.894       5.120
  H       10.734     177.245       1.656
  H       12.201     176.475       1.100
  H       12.207     177.399       2.583

 6  7  8  9  10  11  12  13  14  15  16  26  31  32  33  34  35 0
 6-311+G(2d,p)
 ****
 36  37 0
 6-311+G(2d,p)
 ****
 1  2  3  4  5  17  18  19  20  21  22  23  24  25 0
 3-21G
 ****
 27  28  29  30  38  39  40  41  42  43  44  45 0
 3-21G
 ****


