%nproc=1
%NoSave
%Mem=1900MB
#P OB98/GEN NMR

erre ene a

0 1
  C      570.578     505.597    -723.050
  O      570.123     506.688    -723.843
  P      569.736     508.050    -723.091
  C      570.241     510.558    -723.583
  O      570.651     509.196    -723.731
  C      571.383     511.503    -723.925
  O      572.458     511.353    -722.952
  C      572.046     511.259    -725.277
  O      571.308     511.850    -726.347
  C      573.382     511.959    -725.093
  O      573.214     513.377    -725.252
  C      573.694     511.623    -723.615
  N      578.368     510.062    -722.203
  C      577.824     511.301    -722.285
  N      576.596     511.642    -722.697
  C      575.875     510.536    -723.063
  C      576.338     509.225    -723.040
  C      577.646     509.002    -722.581
  N      578.172     507.728    -722.459
  N      575.336     508.363    -723.487
  C      574.297     509.158    -723.745
  N      574.588     510.484    -723.486
  O      570.348     507.848    -721.618
  O      568.258     508.333    -723.042
  H      572.852     513.531    -726.156
  H      569.884     508.412    -720.983
  H      578.485     512.128    -722.015
  H      573.334     508.834    -724.108
  H      574.182     512.473    -723.109
  H      574.127     511.634    -725.821
  H      572.209     510.172    -725.442
  H      570.991     512.524    -723.859
  H      569.913     510.727    -722.558
  H      579.043     507.642    -721.954
  H      577.583     506.946    -722.541
  H      569.385     510.725    -724.248
  P      571.757     511.475    -727.830
  C      570.557     511.668    -730.138
  O      570.445     511.613    -728.729
  O      572.015     509.910    -727.764
  O      572.987     512.242    -728.315
  H      572.670     509.622    -728.457
  H      569.610     511.443    -730.586
  H      571.303     510.910    -730.501
  H      570.895     512.658    -730.464
  H      570.797     504.763    -723.683
  H      569.817     505.323    -722.350
  H      571.462     505.885    -722.521

 3  4  5  6  7  8  9  10  11  12  22  25  29  30  31  32 0
 6-311+G(2d,p)
 ****
 33  36  37 0
 6-311+G(2d,p)
 ****
 1  2  13  14  15  16  17  18  19  20  21  23  24  26 0
 3-21G
 ****
 27  28  34  35  38  39  40  41  42  43  44  45  46  47  48 0
 3-21G
 ****


