%nproc=1
%NoSave
%Mem=1900MB
#P OB98/GEN NMR

erre ene a

0 1
  C      467.297      51.806    -296.317
  O      467.420      53.212    -296.270
  H      466.261      51.536    -296.089
  H      467.951      51.338    -295.575
  H      467.542      51.435    -297.317
  P      468.863      53.866    -296.502
  C      468.717      54.011    -299.075
  O      468.767      54.733    -297.852
  C      469.446      54.791    -300.178
  O      469.522      53.932    -301.343
  C      468.707      56.079    -300.574
  O      469.534      57.237    -300.527
  C      468.071      55.720    -301.911
  O      467.830      56.823    -302.762
  C      469.028      54.672    -302.480
  N      468.409      53.768    -303.452
  C      469.186      53.362    -304.533
  O      470.359      53.679    -304.720
  N      468.562      52.530    -305.429
  C      467.278      52.088    -305.356
  O      466.774      51.339    -306.188
  C      466.498      52.570    -304.202
  C      467.089      53.378    -303.319
  O      470.018      52.921    -296.449
  O      468.968      54.988    -295.364
  H      468.695      57.187    -303.031
  H      469.535      54.664    -294.635
  H      469.121      52.219    -306.210
  H      465.468      52.248    -304.121
  H      466.547      53.753    -302.455
  H      469.877      55.152    -302.970
  H      467.096      55.250    -301.716
  H      467.909      56.308    -299.853
  H      470.469      54.995    -299.849
  H      467.665      53.868    -299.342
  H      469.187      53.029    -298.945
  P      470.049      57.936    -299.185
  C      472.067      56.315    -298.767
  O      471.613      57.632    -299.028
  O      469.191      57.724    -297.981
  O      470.000      59.507    -299.543
  H      469.786      59.979    -298.714
  H      473.135      56.313    -298.696
  H      471.761      55.668    -299.563
  H      471.648      55.969    -297.845

 6  7  8  9  10  11  12  13  14  15  16  26  31  32  33  34  35 0
 6-311+G(2d,p)
 ****
 36  37 0
 6-311+G(2d,p)
 ****
 1  2  3  4  5  17  18  19  20  21  22  23  24  25 0
 3-21G
 ****
 27  28  29  30  38  39  40  41  42  43  44  45 0
 3-21G
 ****


