%nproc=1
%NoSave
%Mem=1900MB
#P OB98/GEN NMR

erre ene a

0 1
  C      168.031     -21.954      -3.143
  O      167.620     -22.498      -4.380
  H      167.310     -21.187      -2.843
  H      169.015     -21.488      -3.242
  H      168.062     -22.726      -2.369
  P      168.411     -23.763      -4.968
  C      170.644     -24.158      -6.195
  O      169.716     -23.196      -5.708
  C      171.433     -23.574      -7.364
  O      170.554     -23.344      -8.488
  C      172.067     -22.222      -7.065
  O      173.214     -22.355      -6.246
  C      172.332     -21.711      -8.471
  O      173.543     -22.264      -9.002
  C      171.104     -22.242      -9.244
  N      170.102     -21.201      -9.465
  C      170.475     -20.158     -10.308
  O      171.571     -20.091     -10.862
  N      169.558     -19.149     -10.449
  C      168.400     -19.021      -9.736
  O      167.737     -17.988      -9.710
  C      168.029     -20.179      -8.909
  C      168.890     -21.194      -8.803
  O      167.594     -24.722      -5.766
  O      169.021     -24.464      -3.662
  H      168.478     -25.243      -3.433
  H      174.144     -22.376      -8.236
  H      169.840     -18.369     -11.027
  H      167.082     -20.146      -8.383
  H      168.654     -22.046      -8.170
  H      171.409     -22.646     -10.217
  H      172.425     -20.624      -8.492
  H      171.333     -21.565      -6.582
  H      172.194     -24.304      -7.670
  H      170.090     -25.042      -6.533
  H      171.317     -24.449      -5.381
  P      173.391     -21.437      -4.946
  C      173.957     -18.986      -4.408
  O      173.908     -19.992      -5.416
  O      174.176     -22.052      -3.834
  O      171.888     -21.135      -4.477
  H      171.809     -21.331      -3.523
  H      174.314     -18.072      -4.834
  H      174.617     -19.297      -3.626
  H      172.976     -18.834      -4.008

 6  7  8  9  10  11  12  13  14  15  16  27  31  32  33  34  35 0
 6-311+G(2d,p)
 ****
 36  37 0
 6-311+G(2d,p)
 ****
 1  2  3  4  5  17  18  19  20  21  22  23  24  25 0
 3-21G
 ****
 26  28  29  30  38  39  40  41  42  43  44  45 0
 3-21G
 ****


