%nproc=1
%NoSave
%Mem=1900MB
#P OB98/GEN NMR

erre ene a

0 1
  C     -233.780     522.529     135.252
  O     -233.166     523.815     135.377
  P     -233.371     524.832     134.152
  C     -235.279     526.347     133.248
  O     -234.896     525.323     134.157
  C     -236.714     526.791     133.524
  O     -237.627     525.670     133.543
  C     -236.891     527.471     134.879
  O     -236.375     528.791     134.854
  C     -238.400     527.381     135.054
  O     -239.056     528.405     134.286
  C     -238.714     526.000     134.443
  N     -241.743     522.260     136.178
  C     -241.886     523.140     135.160
  N     -241.035     524.109     134.764
  C     -239.931     524.112     135.529
  C     -239.643     523.277     136.602
  C     -240.612     522.313     136.924
  N     -240.473     521.430     137.968
  N     -238.412     523.586     137.144
  C     -237.975     524.606     136.429
  N     -238.853     524.953     135.439
  O     -233.277     523.885     132.867
  O     -232.354     525.928     134.108
  H     -238.665     529.263     134.550
  H     -232.440     524.049     132.392
  H     -242.808     523.057     134.591
  H     -237.037     525.124     136.598
  H     -239.636     526.007     133.848
  H     -238.723     527.492     136.092
  H     -236.386     526.888     135.664
  H     -237.019     527.476     132.722
  H     -235.191     525.992     132.217
  H     -241.251     520.826     138.184
  H     -239.678     521.518     138.584
  H     -234.580     527.187     133.351
  P     -235.018     529.079     135.662
  C     -232.911     527.644     135.999
  O     -234.029     527.911     135.165
  O     -235.414     528.604     137.134
  O     -234.496     530.471     135.538
  H     -235.876     527.748     137.128
  H     -232.349     526.812     135.569
  H     -233.248     527.366     137.004
  H     -232.265     528.523     136.049
  H     -233.572     521.948     136.126
  H     -233.389     522.029     134.390
  H     -234.838     522.648     135.146

 3  4  5  6  7  8  9  10  11  12  22  25  29  30  31  32 0
 6-311+G(2d,p)
 ****
 33  36  37 0
 6-311+G(2d,p)
 ****
 1  2  13  14  15  16  17  18  19  20  21  23  24  26 0
 3-21G
 ****
 27  28  34  35  38  39  40  41  42  43  44  45  46  47  48 0
 3-21G
 ****


