%nproc=1
%NoSave
%Mem=1900MB
#P OB98/GEN NMR

erre ene a

0 1
  C       16.606    -236.882    -549.661
  O       16.095    -236.522    -548.395
  H       17.072    -237.869    -549.584
  H       17.360    -236.166    -549.996
  H       15.796    -236.937    -550.393
  P       15.499    -235.049    -548.192
  C       13.399    -236.151    -547.189
  O       13.903    -235.209    -548.127
  C       11.941    -235.844    -546.842
  O       11.887    -234.551    -546.180
  C       11.017    -235.790    -548.064
  O        9.754    -236.348    -547.698
  C       10.891    -234.304    -548.320
  O        9.708    -233.997    -549.033
  C       10.964    -233.720    -546.907
  N       11.390    -232.322    -546.932
  C       10.412    -231.378    -547.265
  O        9.256    -231.735    -547.502
  N       10.773    -230.060    -547.386
  C       12.015    -229.720    -547.242
  N       12.310    -228.403    -547.415
  C       13.085    -230.684    -546.919
  C       12.706    -231.953    -546.776
  O       15.984    -234.008    -549.144
  O       15.891    -234.689    -546.683
  H        9.746    -233.066    -549.342
  H       16.757    -234.240    -546.659
  H       14.106    -230.348    -546.816
  H       13.426    -232.732    -546.550
  H        9.988    -233.781    -546.406
  H       11.744    -233.956    -548.918
  H       11.423    -236.322    -548.931
  H       11.592    -236.588    -546.117
  H       11.548    -227.785    -547.660
  H       14.013    -236.086    -546.286
  H       13.244    -228.025    -547.372
  H       13.481    -237.163    -547.599
  P        9.155    -237.609    -548.487
  C        9.143    -238.996    -546.338
  O        9.548    -238.956    -547.701
  O        9.463    -237.633    -549.951
  O        7.574    -237.493    -548.250
  H        7.105    -237.874    -549.021
  H        9.447    -239.925    -545.903
  H        8.078    -238.906    -546.279
  H        9.599    -238.187    -545.807

 6  7  8  9  10  11  12  13  14  15  16  26  30  31  32  33  35 0
 6-311+G(2d,p)
 ****
 37  38 0
 6-311+G(2d,p)
 ****
 1  2  3  4  5  17  18  19  20  21  22  23  24  25 0
 3-21G
 ****
 27  28  29  34  36  39  40  41  42  43  44  45  46 0
 3-21G
 ****


