%nproc=1
%NoSave
%Mem=1900MB
#P OB98/GEN NMR

erre ene a

0 1
  C     -469.273    -377.914    -248.729
  O     -468.662    -379.103    -249.192
  P     -469.488    -380.472    -249.297
  C     -468.609    -381.445    -251.496
  O     -468.585    -381.539    -250.082
  C     -467.360    -382.078    -252.120
  O     -466.285    -381.101    -252.158
  C     -466.845    -383.314    -251.362
  O     -466.382    -384.250    -252.343
  C     -465.677    -382.759    -250.562
  O     -464.749    -383.769    -250.186
  C     -465.138    -381.704    -251.537
  N     -464.305    -380.711    -250.874
  C     -462.930    -380.790    -251.096
  O     -462.454    -381.742    -251.718
  N     -462.121    -379.787    -250.596
  C     -462.633    -378.911    -249.796
  N     -461.818    -377.892    -249.380
  C     -464.037    -378.944    -249.342
  C     -464.820    -379.833    -249.947
  O     -470.877    -380.330    -249.821
  O     -469.499    -381.040    -247.796
  H     -470.421    -381.222    -247.529
  H     -465.211    -384.428    -249.630
  H     -464.380    -378.266    -248.570
  H     -465.870    -379.921    -249.699
  H     -464.549    -382.182    -252.331
  H     -466.053    -382.284    -249.651
  H     -467.609    -383.788    -250.742
  H     -467.595    -382.349    -253.153
  H     -460.871    -377.881    -249.742
  H     -468.638    -380.385    -251.768
  H     -462.192    -377.014    -249.025
  H     -469.515    -381.913    -251.886
  P     -466.862    -385.778    -252.225
  C     -466.875    -386.283    -254.773
  O     -466.308    -386.568    -253.505
  O     -468.428    -385.645    -252.568
  O     -466.691    -386.433    -250.894
  H     -468.906    -386.393    -252.159
  H     -466.427    -386.961    -255.512
  H     -466.658    -385.254    -255.062
  H     -467.956    -386.448    -254.760
  H     -468.556    -377.119    -248.734
  H     -469.633    -378.063    -247.732
  H     -470.091    -377.661    -249.370

 3  4  5  6  7  8  9  10  11  12  13  24  27  28  29  30  32 0
 6-311+G(2d,p)
 ****
 34  35 0
 6-311+G(2d,p)
 ****
 1  2  14  15  16  17  18  19  20  21  22  23  25  26 0
 3-21G
 ****
 31  33  36  37  38  39  40  41  42  43  44  45  46 0
 3-21G
 ****


