%nproc=1
%NoSave
%Mem=1900MB
#P OB98/GEN NMR

erre ene a

0 1
  C     -448.985     266.178     784.198
  O     -448.978     264.976     783.453
  H     -450.015     266.403     784.493
  H     -448.608     266.999     783.580
  H     -448.372     266.079     785.101
  P     -447.549     264.329     783.119
  C     -448.198     261.884     783.729
  O     -447.824     262.798     782.711
  C     -449.502     261.187     783.357
  O     -450.599     262.138     783.486
  C     -449.540     260.655     781.906
  O     -450.262     259.428     781.889
  C     -450.327     261.722     781.169
  O     -450.938     261.256     779.969
  C     -451.334     262.126     782.247
  N     -451.938     263.429     781.981
  C     -453.284     263.454     781.623
  O     -454.020     262.467     781.598
  N     -453.786     264.688     781.293
  C     -453.085     265.859     781.262
  O     -453.579     266.935     780.926
  C     -451.670     265.770     781.642
  C     -451.174     264.577     781.976
  O     -446.861     264.203     784.557
  O     -446.713     265.085     782.146
  H     -446.357     265.018     784.762
  H     -451.489     260.474     780.217
  H     -454.759     264.720     781.031
  H     -451.086     266.682     781.608
  H     -450.113     264.473     782.242
  H     -452.122     261.369     782.339
  H     -449.673     262.560     780.911
  H     -448.546     260.497     781.461
  H     -449.695     260.374     784.060
  H     -448.353     262.430     784.668
  H     -447.397     261.152     783.874
  P     -449.429     258.071     781.698
  C     -450.945     256.931     783.506
  O     -450.392     256.890     782.199
  O     -448.340     258.216     782.860
  O     -448.874     257.918     780.324
  H     -448.691     258.662     783.663
  H     -451.556     256.067     783.662
  H     -451.541     257.813     783.614
  H     -450.155     256.944     784.227

 6  7  8  9  10  11  12  13  14  15  16  27  31  32  33  34  35 0
 6-311+G(2d,p)
 ****
 36  37 0
 6-311+G(2d,p)
 ****
 1  2  3  4  5  17  18  19  20  21  22  23  24  25 0
 3-21G
 ****
 26  28  29  30  38  39  40  41  42  43  44  45 0
 3-21G
 ****


