%nproc=1
%NoSave
%Mem=1900MB
#P OB98/GEN NMR

erre ene a

0 1
  C      185.715     173.673    -214.835
  O      184.589     174.527    -214.944
  P      183.208     174.000    -215.581
  C      182.924     172.553    -217.704
  O      183.553     173.681    -217.113
  C      183.535     172.271    -219.076
  O      184.904     171.838    -218.913
  C      182.842     171.172    -219.863
  O      181.625     171.643    -220.430
  C      183.931     170.800    -220.862
  O      183.967     171.749    -221.943
  C      185.205     170.934    -220.005
  N      185.697     169.650    -219.510
  C      186.354     168.835    -220.440
  O      186.515     169.198    -221.601
  N      186.857     167.630    -220.009
  C      186.694     167.260    -218.775
  N      187.268     166.081    -218.395
  C      185.959     168.059    -217.782
  C      185.497     169.241    -218.210
  O      182.044     174.904    -215.381
  O      183.007     172.544    -214.959
  H      183.239     171.513    -222.550
  H      182.522     172.542    -214.096
  H      185.840     167.703    -216.767
  H      184.966     169.898    -217.538
  H      186.001     171.419    -220.585
  H      183.803     169.802    -221.300
  H      182.623     170.309    -219.213
  H      183.543     173.210    -219.645
  H      187.909     165.655    -219.057
  H      181.859     172.771    -217.826
  H      187.441     165.869    -217.418
  H      183.033     171.690    -217.040
  P      180.531     170.547    -220.847
  C      180.755     168.386    -222.272
  O      181.184     169.717    -222.065
  O      179.377     171.421    -221.533
  O      180.024     169.720    -219.712
  H      178.637     171.551    -220.906
  H      181.096     168.056    -223.255
  H      179.659     168.323    -222.246
  H      181.181     167.730    -221.510
  H      186.527     174.208    -214.388
  H      186.003     173.336    -215.809
  H      185.465     172.830    -214.225

 3  4  5  6  7  8  9  10  11  12  13  23  27  28  29  30  32 0
 6-311+G(2d,p)
 ****
 34  35 0
 6-311+G(2d,p)
 ****
 1  2  14  15  16  17  18  19  20  21  22  24  25  26 0
 3-21G
 ****
 31  33  36  37  38  39  40  41  42  43  44  45  46 0
 3-21G
 ****


