%nproc=1
%NoSave
%Mem=1900MB
#P OB98/GEN NMR

erre ene a

0 1
  C       69.330     207.659    -226.115
  O       68.027     207.295    -225.698
  H       69.595     207.062    -226.991
  H       70.055     207.459    -225.323
  H       69.361     208.716    -226.389
  P       67.409     208.033    -224.419
  C       65.639     209.237    -225.861
  O       66.736     209.380    -224.970
  C       64.337     209.580    -225.147
  O       64.449     210.853    -224.483
  C       63.128     209.679    -226.076
  O       62.620     208.387    -226.367
  C       62.191     210.513    -225.219
  O       61.606     209.687    -224.194
  C       63.164     211.528    -224.595
  N       62.396     216.536    -224.727
  C       62.005     215.602    -223.785
  N       61.267     216.068    -222.755
  N       62.293     214.329    -223.860
  C       62.975     214.002    -224.981
  C       63.403     214.832    -225.992
  C       63.127     216.247    -225.870
  O       63.470     217.110    -226.673
  N       64.008     214.126    -227.000
  C       63.979     212.876    -226.582
  N       63.350     212.745    -225.367
  O       68.339     208.251    -223.263
  O       66.152     207.130    -224.017
  H       61.163     208.948    -224.651
  H       66.397     206.460    -223.354
  H       62.125     217.499    -224.622
  H       64.401     212.033    -227.114
  H       62.861     211.828    -223.586
  H       61.373     210.957    -225.785
  H       60.786     216.957    -222.800
  H       63.360     210.241    -226.986
  H       60.929     215.393    -222.082
  H       64.172     208.824    -224.369
  H       65.626     208.197    -226.205
  H       65.766     209.892    -226.729
  P       62.180     207.986    -227.859
  C       64.081     206.255    -228.115
  O       63.527     207.484    -228.566
  O       61.446     209.050    -228.602
  O       61.354     206.633    -227.684
  H       60.390     206.776    -227.521
  H       64.972     206.041    -228.668
  H       63.371     205.468    -228.263
  H       64.317     206.331    -227.074

 6  7  8  9  10  11  12  13  14  15  26  29  33  34 0
 6-311+G(2d,p)
 ****
 36  38  39  40  41 0
 6-311+G(2d,p)
 ****
 1  2  3  4  5  16  17  18  19  20  21  22  23  24  25 0
 3-21G
 ****
 27  28  30  31  32  35  37  42  43  44  45  46  47 0
 3-21G
 ****
 48  49 0
 3-21G
 ****


