%nproc=1
%NoSave
%Mem=1900MB
#P OB98/GEN NMR

erre ene a

0 1
  C     -111.326       9.114     -53.763
  O     -111.769       8.172     -54.717
  H     -110.788       9.913     -54.280
  H     -110.642       8.628     -53.064
  H     -112.169       9.549     -53.220
  P     -112.903       7.136     -54.255
  C     -111.122       5.352     -53.640
  O     -112.273       5.666     -54.409
  C     -110.785       3.866     -53.766
  O     -111.865       3.092     -53.159
  C     -110.621       3.380     -55.216
  O     -109.581       2.395     -55.257
  C     -111.942       2.686     -55.489
  O     -111.843       1.724     -56.533
  C     -112.236       2.086     -54.118
  N     -115.395      -1.761     -54.747
  C     -114.016      -1.722     -54.762
  N     -113.371      -2.872     -55.050
  N     -113.323      -0.640     -54.521
  C     -114.091       0.437     -54.228
  C     -115.460       0.529     -54.185
  C     -116.218      -0.671     -54.472
  O     -117.441      -0.765     -54.495
  N     -115.857       1.814     -53.912
  C     -114.730       2.498     -53.812
  N     -113.632       1.706     -53.998
  O     -113.961       7.219     -55.454
  O     -113.533       7.426     -52.935
  H     -112.712       1.284     -56.627
  H     -114.665       7.857     -55.230
  H     -115.882      -2.616     -54.957
  H     -114.657       3.560     -53.629
  H     -111.642       1.185     -53.918
  H     -112.703       3.425     -55.768
  H     -113.834      -3.751     -55.216
  H     -110.402       4.179     -55.930
  H     -112.358      -2.867     -55.025
  H     -109.879       3.660     -53.184
  H     -111.317       5.584     -52.588
  H     -110.281       5.963     -53.983
  P     -108.070       2.900     -55.435
  C     -107.761       1.465     -57.584
  O     -107.265       1.816     -56.300
  O     -107.457       2.725     -53.966
  O     -107.956       4.310     -55.911
  H     -106.809       3.434     -53.792
  H     -107.116       0.736     -58.028
  H     -107.795       2.337     -58.204
  H     -108.746       1.058     -57.487

 6  7  8  9  10  11  12  13  14  15  26  29  33  34 0
 6-311+G(2d,p)
 ****
 36  38  39  40  41 0
 6-311+G(2d,p)
 ****
 1  2  3  4  5  16  17  18  19  20  21  22  23  24  25 0
 3-21G
 ****
 27  28  30  31  32  35  37  42  43  44  45  46  47 0
 3-21G
 ****
 48  49 0
 3-21G
 ****


