%nproc=1
%NoSave
%Mem=1900MB
#P OB98/GEN NMR

erre ene a

0 1
  C       -0.358     -18.047     -92.026
  O        0.855     -17.338     -91.905
  H       -0.817     -18.126     -91.038
  H       -0.157     -19.054     -92.402
  H       -1.055     -17.538     -92.697
  P        1.499     -16.684     -93.215
  C        3.453     -15.090     -93.763
  O        2.607     -15.620     -92.750
  C        4.512     -14.154     -93.184
  O        3.870     -13.094     -92.442
  C        5.455     -14.865     -92.209
  O        6.572     -15.487     -92.822
  C        5.896     -13.718     -91.303
  O        7.050     -13.047     -91.834
  C        4.683     -12.781     -91.303
  N        2.674     -10.374     -87.265
  C        3.578      -9.898     -88.196
  N        4.023      -8.638     -87.998
  N        4.008     -10.604     -89.208
  C        3.550     -11.877     -89.216
  C        2.669     -12.466     -88.338
  C        2.140     -11.654     -87.263
  O        1.327     -12.023     -86.423
  N        2.466     -13.792     -88.640
  C        3.289     -14.020     -89.643
  N        3.907     -12.871     -90.079
  O        0.328     -15.740     -93.774
  O        1.942     -17.654     -94.268
  H        7.268     -12.304     -91.238
  H        0.385     -15.690     -94.745
  H        2.358      -9.774     -86.525
  H        3.442     -14.981     -90.120
  H        4.989     -11.733     -91.408
  H        6.175     -14.089     -90.314
  H        3.792      -8.082     -87.192
  H        4.908     -15.589     -91.600
  H        4.825      -8.320     -88.545
  H        5.065     -13.681     -94.005
  H        2.807     -14.544     -94.452
  H        3.925     -15.900     -94.326
  P        7.216     -16.810     -92.200
  C        8.559     -18.858     -93.149
  O        7.794     -17.698     -93.393
  O        5.939     -17.638     -91.709
  O        8.199     -16.590     -91.098
  H        5.798     -17.517     -90.751
  H        8.845     -19.300     -94.081
  H        7.977     -19.558     -92.586
  H        9.436     -18.597     -92.595

 6  7  8  9  10  11  12  13  14  15  26  29  33  34 0
 6-311+G(2d,p)
 ****
 36  38  39  40  41 0
 6-311+G(2d,p)
 ****
 1  2  3  4  5  16  17  18  19  20  21  22  23  24  25 0
 3-21G
 ****
 27  28  30  31  32  35  37  42  43  44  45  46  47 0
 3-21G
 ****
 48  49 0
 3-21G
 ****


