%nproc=1
%NoSave
%Mem=1900MB
#P OB98/GEN NMR

erre ene a

0 1
  C     -891.773     716.902    2023.473
  O     -891.853     717.959    2024.403
  H     -892.133     717.247    2022.507
  H     -892.363     716.067    2023.806
  H     -890.723     716.581    2023.347
  P     -891.213     717.739    2025.866
  C     -893.513     716.907    2026.786
  O     -892.123     716.621    2026.599
  C     -894.333     715.613    2026.823
  O     -893.483     714.539    2027.291
  C     -895.573     715.707    2027.719
  O     -896.643     714.984    2027.103
  C     -895.133     714.952    2028.995
  O     -896.243     714.425    2029.703
  C     -894.163     713.899    2028.426
  N     -893.203     713.447    2029.437
  C     -893.613     712.364    2030.228
  O     -894.733     711.857    2030.058
  N     -892.783     711.938    2031.233
  C     -891.673     712.596    2031.462
  N     -890.903     712.138    2032.509
  C     -891.263     713.770    2030.715
  C     -892.063     714.159    2029.716
  O     -891.563     719.083    2026.653
  O     -889.743     717.426    2025.881
  H     -895.963     714.217    2030.612
  H     -890.883     719.305    2027.290
  H     -890.353     714.291    2030.983
  H     -891.823     715.024    2029.105
  H     -894.723     713.032    2028.037
  H     -894.623     715.658    2029.651
  H     -895.893     716.729    2027.940
  H     -894.633     715.369    2025.760
  H     -891.263     711.322    2033.016
  H     -893.873     717.560    2025.957
  H     -890.093     712.590    2032.823
  H     -893.643     717.486    2027.736
  P     -897.563     715.808    2026.057
  C     -899.353     716.195    2027.927
  O     -898.543     716.780    2026.908
  O     -898.563     714.678    2025.468
  O     -896.783     716.457    2024.922
  H     -898.333     714.474    2024.556
  H     -899.940     716.956    2028.397
  H     -898.725     715.728    2028.657
  H     -900.000     715.463    2027.492

 6  7  8  9  10  11  12  13  14  15  16  26  30  31  32  33  35 0
 6-311+G(2d,p)
 ****
 37  38 0
 6-311+G(2d,p)
 ****
 1  2  3  4  5  17  18  19  20  21  22  23  24  25 0
 3-21G
 ****
 27  28  29  34  36  39  40  41  42  43  44  45  46 0
 3-21G
 ****


