%nproc=1
%NoSave
%Mem=1900MB
#P OB98/GEN NMR

erre ene a

0 1
  C     -143.838     -73.346    -191.343
  O     -143.901     -74.757    -191.302
  H     -144.697     -72.972    -191.905
  H     -142.922     -73.025    -191.845
  H     -143.871     -72.934    -190.330
  P     -142.744     -75.508    -190.481
  C     -143.908     -75.373    -188.159
  O     -142.826     -74.948    -188.979
  C     -143.576     -75.114    -186.692
  O     -144.693     -75.517    -185.868
  C     -142.378     -75.901    -186.172
  O     -141.149     -75.310    -186.554
  C     -142.629     -75.863    -184.671
  O     -142.153     -74.644    -184.087
  C     -144.160     -75.920    -184.587
  N     -146.709     -78.613    -181.091
  C     -146.445     -77.292    -181.197
  N     -145.771     -76.650    -182.176
  C     -145.363     -77.518    -183.116
  C     -145.553     -78.889    -183.139
  C     -146.266     -79.443    -182.064
  N     -146.506     -80.790    -181.938
  N     -144.945     -79.443    -184.248
  C     -144.407     -78.424    -184.888
  N     -144.639     -77.243    -184.243
  O     -141.407     -74.844    -191.060
  O     -142.734     -76.994    -190.609
  H     -142.505     -74.613    -183.177
  H     -141.050     -75.401    -191.777
  H     -146.820     -76.671    -180.388
  H     -143.839     -78.493    -185.808
  H     -144.559     -75.226    -183.838
  H     -142.123     -76.685    -184.162
  H     -142.431     -76.942    -186.514
  H     -143.423     -74.036    -186.554
  H     -144.073     -76.446    -188.307
  H     -144.811     -74.829    -188.453
  H     -147.004     -81.120    -181.128
  H     -146.087     -81.428    -182.602
  P     -139.796     -76.132    -186.312
  C     -139.805     -77.095    -188.728
  O     -139.788     -77.368    -187.336
  O     -140.036     -76.821    -184.888
  O     -138.553     -75.309    -186.332
  H     -139.576     -76.323    -184.187
  H     -139.797     -78.016    -189.272
  H     -138.942     -76.519    -188.989
  H     -140.689     -76.544    -188.973

 6  7  8  9  10  11  12  13  14  15  25  28  32  33  34  35 0
 6-311+G(2d,p)
 ****
 36  37  40 0
 6-311+G(2d,p)
 ****
 1  2  3  4  5  16  17  18  19  20  21  22  23  24 0
 3-21G
 ****
 26  27  29  30  31  38  39 41  42  43  44  45  46  47  48 0
 3-21G
 ****


