%nproc=1
%NoSave
%Mem=1900MB
#P OB98/GEN NMR

erre ene a

0 1
  C       21.459      11.661      22.008
  O       21.235      12.629      23.037
  P       19.713      12.905      23.472
  C       19.380      14.961      21.893
  O       19.461      14.470      23.219
  C       18.666      16.316      21.856
  O       17.232      16.123      22.046
  C       19.146      17.314      22.916
  O       19.121      18.613      22.306
  C       18.077      17.215      23.988
  O       18.038      18.372      24.810
  C       16.831      16.992      23.125
  N       15.713      16.433      23.878
  C       14.602      17.247      24.055
  O       14.564      18.416      23.677
  N       13.549      16.687      24.725
  C       13.532      15.444      25.292
  O       12.559      14.991      25.883
  C       14.777      14.671      25.171
  C       15.794      15.195      24.482
  O       19.809      12.767      25.060
  O       18.743      11.984      22.811
  H       20.637      13.117      25.430
  H       18.914      18.496      25.229
  H       12.720      17.250      24.836
  H       14.823      13.706      25.657
  H       16.731      14.663      24.393
  H       16.504      17.939      22.674
  H       18.267      16.344      24.624
  H       20.153      17.096      23.280
  H       18.803      16.743      20.854
  H       18.825      14.253      21.269
  H       20.389      15.033      21.473
  P       20.465      19.147      21.599
  C       20.879      21.355      22.942
  O       20.468      20.742      21.741
  O       20.077      18.926      20.058
  O       21.713      18.430      21.990
  H       19.190      19.255      19.838
  H       21.035      22.421      22.757
  H       21.816      20.926      23.306
  H       20.101      21.241      23.702
  H       22.509      11.578      21.819
  H       20.959      11.969      21.114
  H       21.076      10.712      22.322

 3  4  5  6  7  8  9  10  11  12  13  24  28  29  30  31  32 0
 6-311+G(2d,p)
 ****
 33  34 0
 6-311+G(2d,p)
 ****
 1  2  14  15  16  17  18  19  20  21  22  23  25  26  27 0
 3-21G
 ****
 35  36  37  38  39  40  41  42  43  44  45 0
 3-21G
 ****


