%nproc=1
%NoSave
%Mem=1900MB
#P OB98/GEN NMR

erre ene a

0 1
  C     -261.478     -58.030    -666.357
  O     -260.955     -59.348    -666.516
  P     -260.809     -59.959    -667.995
  C     -262.766     -61.567    -667.560
  O     -261.425     -61.441    -668.015
  C     -263.218     -63.032    -667.451
  O     -262.678     -63.816    -668.555
  C     -262.787     -63.731    -666.156
  O     -263.847     -64.629    -665.797
  C     -261.546     -64.498    -666.582
  O     -261.215     -65.541    -665.676
  C     -261.979     -64.942    -667.985
  N     -260.845     -65.343    -668.810
  C     -260.769     -66.694    -669.171
  O     -261.571     -67.507    -668.708
  N     -259.759     -67.086    -670.016
  C     -258.835     -66.235    -670.350
  N     -257.865     -66.667    -671.211
  C     -258.788     -64.852    -669.840
  C     -259.827     -64.472    -669.108
  O     -259.452     -59.829    -668.614
  O     -261.898     -59.120    -668.832
  H     -261.872     -66.267    -665.767
  H     -261.559     -58.979    -669.742
  H     -257.950     -64.210    -670.076
  H     -259.891     -63.477    -668.694
  H     -262.686     -65.778    -667.929
  H     -260.689     -63.810    -666.635
  H     -262.611     -63.039    -665.324
  H     -264.313     -63.060    -667.538
  H     -257.890     -67.621    -671.532
  H     -263.431     -61.040    -668.253
  H     -257.135     -66.049    -671.549
  H     -262.873     -61.052    -666.594
  P     -265.239     -64.031    -665.274
  C     -265.129     -64.838    -662.804
  O     -265.748     -64.946    -664.068
  O     -266.242     -64.444    -666.466
  O     -265.280     -62.550    -665.073
  H     -266.997     -63.825    -666.468
  H     -265.780     -65.316    -662.051
  H     -264.986     -63.795    -662.527
  H     -264.165     -65.355    -662.815
  H     -261.507     -57.781    -665.317
  H     -262.467     -57.988    -666.762
  H     -260.851     -57.333    -666.873

 3  4  5  6  7  8  9  10  11  12  13  23  27  28  29  30  32 0
 6-311+G(2d,p)
 ****
 34  35 0
 6-311+G(2d,p)
 ****
 1  2  14  15  16  17  18  19  20  21  22  24  25  26 0
 3-21G
 ****
 31  33  36  37  38  39  40  41  42  43  44  45  46 0
 3-21G
 ****


