%nproc=1
%NoSave
%Mem=1900MB
#P OB98/GEN NMR

erre ene a

0 1
  C     -335.936     604.670    -709.529
  O     -337.104     605.067    -708.816
  P     -338.391     605.626    -709.600
  C     -339.019     608.103    -709.881
  O     -338.014     607.109    -710.094
  C     -338.650     609.395    -710.621
  O     -337.443     609.943    -710.047
  C     -338.390     609.177    -712.124
  O     -338.870     610.324    -712.842
  C     -336.866     609.154    -712.234
  O     -336.435     609.547    -713.542
  C     -336.464     610.091    -711.101
  N     -331.398     610.090    -711.958
  C     -332.444     610.507    -712.718
  N     -333.760     610.458    -712.438
  C     -333.961     609.948    -711.203
  C     -333.000     609.492    -710.317
  C     -331.657     609.574    -710.739
  N     -330.597     609.165    -709.958
  N     -333.587     609.032    -709.159
  C     -334.886     609.218    -709.339
  N     -335.155     609.794    -710.550
  O     -339.672     605.533    -708.839
  O     -338.438     604.784    -710.949
  H     -336.891     610.388    -713.760
  H     -339.370     604.577    -711.195
  H     -332.173     610.930    -713.685
  H     -335.655     608.961    -708.628
  H     -336.470     611.139    -711.420
  H     -336.507     608.125    -712.056
  H     -338.857     608.260    -712.511
  H     -339.451     610.123    -710.474
  H     -339.082     608.315    -708.816
  H     -329.674     609.373    -710.292
  H     -330.780     608.929    -708.983
  H     -339.993     607.721    -710.223
  P     -338.936     610.155    -714.449
  C     -337.908     611.540    -716.401
  O     -337.917     611.259    -715.017
  O     -340.343     610.188    -714.949
  O     -338.186     608.755    -714.641
  H     -337.562     608.559    -713.904
  H     -337.123     612.291    -716.594
  H     -338.877     611.958    -716.724
  H     -337.691     610.638    -716.985
  H     -335.194     604.329    -708.837
  H     -335.554     605.504    -710.080
  H     -336.183     603.879    -710.206

 3  4  5  6  7  8  9  10  11  12  22  25  29  30  31  32 0
 6-311+G(2d,p)
 ****
 33  36  37 0
 6-311+G(2d,p)
 ****
 1  2  13  14  15  16  17  18  19  20  21  23  24  26 0
 3-21G
 ****
 27  28  34  35  38  39  40  41  42  43  44  45  46  47  48 0
 3-21G
 ****


