%nproc=1
%NoSave
%Mem=1900MB
#P OB98/GEN NMR

erre ene a

0 1
  C      -91.339      58.573     199.247
  O      -90.763      59.074     200.455
  P      -91.740      59.915     201.411
  C      -90.268      62.049     201.374
  O      -90.865      61.030     202.160
  C      -89.310      62.893     202.220
  O      -89.997      63.664     203.225
  C      -88.275      62.063     202.967
  O      -87.224      61.692     202.092
  C      -87.831      63.028     204.060
  O      -86.818      63.933     203.579
  C      -89.128      63.794     204.377
  N      -89.206      63.908     209.443
  C      -88.244      64.363     208.562
  N      -87.159      64.952     209.108
  N      -88.337      64.248     207.265
  C      -89.476      63.638     206.859
  C      -90.514      63.172     207.634
  C      -90.396      63.299     209.069
  O      -91.231      62.934     209.890
  N      -91.531      62.669     206.860
  C      -91.048      62.718     205.631
  N      -89.835      63.356     205.568
  O      -92.116      58.870     202.563
  O      -92.961      60.421     200.714
  H      -86.033      63.418     203.314
  H      -93.049      58.604     202.481
  H      -89.078      64.013     210.435
  H      -91.550      62.332     204.753
  H      -88.935      64.867     204.514
  H      -87.397      62.504     204.914
  H      -87.024      65.074     210.101
  H      -88.750      61.181     203.416
  H      -86.445      65.299     208.481
  H      -88.803      63.594     201.543
  H      -91.039      62.689     200.943
  H      -89.740      61.584     200.537
  P      -87.249      60.216     201.473
  C      -85.129      59.724     202.884
  O      -85.781      59.599     201.637
  O      -87.384      60.483     199.901
  O      -88.365      59.353     201.968
  H      -88.045      59.873     199.520
  H      -84.456      58.875     203.017
  H      -85.840      59.746     203.715
  H      -84.540      60.648     202.891
  H      -90.598      58.033     198.696
  H      -91.697      59.390     198.657
  H      -92.153      57.920     199.484

 3  4  5  6  7  8  9  10  11  12  23  26  30  31 0
 6-311+G(2d,p)
 ****
 33  35  36  37  38 0
 6-311+G(2d,p)
 ****
 1  2  13  14  15  16  17  18  19  20  21  22  24  25 0
 3-21G
 ****
 27  28  29  32  34  39  40  41  42  43  44  45  46  47  48  49 0
 3-21G
 ****


