%nproc=1
%NoSave
%Mem=1900MB
#P OB98/GEN NMR

erre ene a

0 1
  C      -35.688     125.270      36.336
  O      -34.591     126.113      36.621
  H      -35.953     124.720      37.242
  H      -35.425     124.553      35.554
  H      -36.547     125.867      36.020
  P      -33.972     126.938      35.393
  C      -31.898     125.382      35.219
  O      -32.387     126.701      35.425
  C      -30.469     125.445      34.688
  O      -30.459     126.076      33.385
  C      -29.523     126.274      35.545
  O      -29.067     125.575      36.690
  C      -28.407     126.554      34.554
  O      -27.463     125.476      34.500
  C      -29.168     126.697      33.222
  N      -29.277     128.093      32.808
  C      -28.086     128.815      32.802
  O      -27.001     128.331      33.118
  N      -28.191     130.133      32.455
  C      -29.348     130.796      32.172
  O      -29.377     131.995      31.922
  C      -30.576     129.987      32.211
  C      -30.487     128.693      32.527
  O      -34.139     128.461      35.856
  O      -34.618     126.680      34.073
  H      -34.858     128.882      35.351
  H      -26.674     125.832      34.046
  H      -27.339     130.673      32.442
  H      -31.514     130.483      31.993
  H      -31.380     128.077      32.574
  H      -28.652     126.145      32.426
  H      -27.858     127.450      34.830
  H      -29.998     127.223      35.824
  H      -30.093     124.420      34.577
  H      -32.526     124.866      34.487
  H      -31.941     124.835      36.166
  P      -29.453     126.167      38.131
  C      -26.900     126.788      38.266
  O      -28.069     126.326      38.923
  O      -30.158     124.894      38.792
  O      -30.300     127.392      38.053
  H      -29.824     124.060      38.417
  H      -26.089     126.823      38.963
  H      -27.075     127.768      37.873
  H      -26.653     126.122      37.466

 6  7  8  9  10  11  12  13  14  15  16  27  31  32  33  34  35 0
 6-311+G(2d,p)
 ****
 36  37 0
 6-311+G(2d,p)
 ****
 1  2  3  4  5  17  18  19  20  21  22  23  24  25 0
 3-21G
 ****
 26  28  29  30  38  39  40  41  42  43  44  45 0
 3-21G
 ****


