%nproc=1
%NoSave
%Mem=1900MB
#P OB98/GEN NMR

erre ene a

0 1
  C     1836.721     503.123     778.992
  O     1836.803     504.533     778.877
  H     1835.836     502.764     778.448
  H     1836.590     502.844     780.052
  H     1837.625     502.641     778.588
  P     1837.967     505.272     779.708
  C     1839.404     506.062     777.679
  O     1839.295     505.189     778.803
  C     1840.418     507.199     777.988
  O     1841.751     506.551     778.195
  C     1840.615     508.179     776.870
  O     1839.585     509.170     776.826
  C     1841.983     508.787     777.256
  O     1841.812     509.839     778.234
  C     1842.746     507.577     777.851
  N     1843.741     507.070     776.931
  C     1844.965     507.710     776.942
  O     1845.182     508.696     777.679
  N     1845.865     507.266     776.015
  C     1845.670     506.248     775.140
  O     1846.549     505.940     774.304
  C     1844.387     505.598     775.170
  C     1843.448     506.032     776.019
  O     1838.275     504.246     780.891
  O     1837.636     506.630     780.195
  H     1837.888     504.590     781.741
  H     1841.092     510.426     777.877
  H     1846.762     507.719     776.030
  H     1844.194     504.831     774.439
  H     1842.478     505.546     776.062
  H     1843.251     507.868     778.770
  H     1842.449     509.197     776.390
  H     1840.718     507.648     775.902
  H     1840.120     507.664     778.938
  H     1838.429     506.556     777.467
  H     1839.718     505.513     776.809
  P     1839.238     509.841     775.411
  C     1836.891     508.581     775.374
  O     1838.130     508.849     774.715
  O     1840.607     509.522     774.609
  O     1838.852     511.280     775.523
  H     1841.080     508.722     774.946
  H     1836.303     507.919     774.773
  H     1836.359     509.498     775.520
  H     1837.083     508.125     776.323

 6  7  8  9  10  11  12  13  14  15  16  27  31  32  33  34  35 0
 6-311+G(2d,p)
 ****
 36  37 0
 6-311+G(2d,p)
 ****
 1  2  3  4  5  17  18  19  20  21  22  23  24  25 0
 3-21G
 ****
 26  28  29  30  38  39  40  41  42  43  44  45 0
 3-21G
 ****


