%nproc=1
%NoSave
%Mem=1900MB
#P OB98/GEN NMR

erre ene a

0 1
  C     -122.540    -215.983    -290.108
  O     -122.499    -215.301    -288.866
  H     -121.692    -215.658    -290.718
  H     -123.466    -215.743    -290.637
  H     -122.471    -217.066    -289.951
  P     -123.556    -215.766    -287.753
  C     -124.239    -213.324    -287.038
  O     -123.653    -214.569    -286.673
  C     -123.743    -212.223    -286.097
  O     -124.275    -212.366    -284.778
  C     -122.233    -212.225    -285.880
  O     -121.518    -211.790    -287.020
  C     -122.126    -211.287    -284.695
  O     -122.214    -209.918    -285.095
  C     -123.375    -211.700    -283.855
  N     -123.030    -212.533    -282.711
  C     -122.387    -211.866    -281.662
  O     -122.150    -210.669    -281.728
  N     -121.999    -212.617    -280.563
  C     -122.263    -213.881    -280.514
  N     -121.849    -214.555    -279.403
  C     -122.966    -214.616    -281.590
  C     -123.297    -213.874    -282.655
  O     -122.756    -216.886    -286.960
  O     -124.882    -216.192    -288.276
  H     -122.342    -209.396    -284.272
  H     -121.882    -216.609    -286.638
  H     -123.175    -215.672    -281.507
  H     -123.815    -214.341    -283.484
  H     -123.895    -210.800    -283.490
  H     -121.171    -211.408    -284.168
  H     -121.907    -213.223    -285.563
  H     -124.086    -211.259    -286.498
  H     -121.356    -214.025    -278.691
  H     -125.336    -213.382    -287.015
  H     -121.953    -215.554    -279.268
  H     -123.938    -213.105    -288.066
  P     -120.408    -212.743    -287.697
  C     -118.418    -211.098    -287.602
  O     -119.371    -211.765    -288.440
  O     -120.954    -213.849    -288.553
  O     -119.552    -213.266    -286.451
  H     -119.122    -212.561    -285.914
  H     -117.786    -210.479    -288.204
  H     -117.823    -211.825    -287.090
  H     -118.934    -210.492    -286.887

 6  7  8  9  10  11  12  13  14  15  16  26  30  31  32  33  35 0
 6-311+G(2d,p)
 ****
 37  38 0
 6-311+G(2d,p)
 ****
 1  2  3  4  5  17  18  19  20  21  22  23  24  25 0
 3-21G
 ****
 27  28  29  34  36  39  40  41  42  43  44  45  46 0
 3-21G
 ****


