%nproc=1
%NoSave
%Mem=1900MB
#P OB98/GEN NMR

erre ene a

0 1
  C      -30.730     -61.459     -31.392
  O      -29.991     -61.824     -32.546
  P      -28.814     -62.911     -32.466
  C      -29.225     -63.031     -35.001
  O      -28.252     -63.022     -33.964
  C      -28.549     -63.243     -36.352
  O      -27.751     -62.074     -36.653
  C      -27.580     -64.422     -36.436
  O      -28.194     -65.674     -36.705
  C      -26.736     -64.009     -37.635
  O      -27.450     -64.291     -38.853
  C      -26.606     -62.497     -37.434
  N      -21.992     -60.347     -37.939
  C      -23.002     -60.538     -38.817
  N      -24.194     -61.137     -38.611
  C      -24.312     -61.523     -37.330
  C      -23.373     -61.392     -36.321
  C      -22.161     -60.771     -36.666
  N      -21.143     -60.557     -35.763
  N      -23.849     -61.928     -35.140
  C      -25.057     -62.360     -35.433
  N      -25.386     -62.130     -36.740
  O      -29.201     -64.195     -31.820
  O      -27.634     -62.158     -31.694
  H      -27.616     -65.252     -38.868
  H      -26.983     -62.808     -31.366
  H      -22.829     -60.164     -39.823
  H      -25.725     -62.845     -34.736
  H      -26.635     -61.943     -38.379
  H      -25.786     -64.546     -37.692
  H      -26.940     -64.476     -35.548
  H      -29.329     -63.325     -37.119
  H      -29.735     -62.060     -35.002
  H      -20.367     -59.989     -36.066
  H      -21.332     -60.723     -34.785
  H      -29.966     -63.808     -34.803
  P      -27.330     -66.995     -36.396
  C      -29.363     -68.585     -35.965
  O      -28.275     -68.229     -36.789
  O      -26.744     -67.046     -35.029
  O      -26.235     -66.982     -37.562
  H      -26.581     -67.126     -38.458
  H      -29.967     -69.334     -36.485
  H      -29.993     -67.718     -35.753
  H      -29.000     -69.016     -35.029
  H      -31.463     -60.726     -31.655
  H      -30.067     -61.052     -30.657
  H      -31.218     -62.324     -30.993

 3  4  5  6  7  8  9  10  11  12  22  25  29  30  31  32 0
 6-311+G(2d,p)
 ****
 33  36  37 0
 6-311+G(2d,p)
 ****
 1  2  13  14  15  16  17  18  19  20  21  23  24  26 0
 3-21G
 ****
 27  28  34  35  38  39  40  41  42  43  44  45  46  47  48 0
 3-21G
 ****


