%nproc=1
%NoSave
%Mem=1900MB
#P OB98/GEN NMR

erre ene a

0 1
  C       82.113     -19.099     -61.016
  O       81.864     -18.328     -59.854
  P       80.672     -18.805     -58.889
  C       79.130     -17.271     -60.309
  O       79.307     -18.540     -59.691
  C       77.811     -17.207     -61.081
  O       77.816     -18.233     -62.103
  C       76.569     -17.410     -60.212
  O       75.540     -16.555     -60.714
  C       76.183     -18.852     -60.478
  O       74.798     -19.083     -60.228
  C       76.613     -19.012     -61.945
  N       76.828     -20.408     -62.308
  C       75.717     -21.255     -62.251
  O       74.641     -20.830     -61.832
  N       75.866     -22.568     -62.618
  C       77.044     -23.022     -62.913
  N       77.140     -24.330     -63.273
  C       78.263     -22.192     -62.865
  C       78.081     -20.904     -62.580
  O       80.658     -17.678     -57.754
  O       80.840     -20.177     -58.325
  H       74.592     -20.008     -60.490
  H       80.381     -18.052     -56.897
  H       79.227     -22.629     -63.084
  H       78.914     -20.215     -62.546
  H       75.854     -18.590     -62.617
  H       76.767     -19.520     -59.833
  H       76.748     -17.192     -59.156
  H       77.761     -16.239     -61.594
  H       76.292     -24.882     -63.284
  H       79.947     -17.102     -61.016
  H       78.016     -24.771     -63.518
  H       79.170     -16.487     -59.547
  P       74.755     -15.638     -59.659
  C       72.687     -17.107     -60.044
  O       73.581     -16.570     -59.091
  O       73.941     -14.657     -60.634
  O       75.551     -14.867     -58.660
  H       73.461     -13.994     -60.105
  H       72.030     -17.824     -59.544
  H       73.234     -17.623     -60.837
  H       72.073     -16.307     -60.470
  H       82.927     -18.670     -61.561
  H       81.238     -19.109     -61.632
  H       82.362     -20.100     -60.733

 3  4  5  6  7  8  9  10  11  12  13  21  23  27  28  29  30  32 0
 6-311+G(2d,p)
 ****
 34  35 0
 6-311+G(2d,p)
 ****
 1  2  14  15  16  17  18  19  20  22  24  25  26 0
 3-21G
 ****
 31  33  36  37  38  39  40  41  42  43  44  45  46 0
 3-21G
 ****


