%nproc=1
%NoSave
%Mem=1900MB
#P OB98/GEN NMR

erre ene a

0 1
  C     -164.283     -79.213     346.852
  O     -163.865     -78.528     348.042
  P     -162.570     -77.579     348.062
  C     -160.225     -77.460     349.107
  O     -161.477     -78.137     349.105
  C     -159.552     -77.437     350.487
  O     -160.312     -76.633     351.426
  C     -159.365     -78.817     351.140
  O     -158.176     -78.724     351.931
  C     -160.592     -78.915     352.034
  O     -160.467     -79.885     353.059
  C     -160.686     -77.475     352.534
  N     -163.340     -75.392     356.397
  C     -162.013     -75.402     356.120
  N     -161.390     -75.941     355.055
  C     -162.275     -76.482     354.195
  C     -163.653     -76.535     354.336
  C     -164.185     -75.963     355.503
  N     -165.531     -75.983     355.818
  N     -164.230     -77.191     353.267
  C     -163.215     -77.544     352.502
  N     -162.010     -77.130     353.019
  O     -162.880     -76.127     348.237
  O     -161.881     -77.825     346.638
  H     -160.335     -80.755     352.639
  H     -161.635     -76.963     346.250
  H     -161.375     -74.922     356.854
  H     -163.288     -78.106     351.583
  H     -159.970     -77.292     353.349
  H     -161.464     -79.187     351.418
  H     -159.297     -79.634     350.416
  H     -158.580     -76.938     350.367
  H     -160.387     -76.429     348.767
  H     -165.805     -75.633     356.718
  H     -166.159     -76.519     355.233
  H     -159.560     -77.945     348.382
  P     -156.914     -79.670     351.661
  C     -156.274     -82.089     352.211
  O     -157.311     -81.128     352.197
  O     -155.612     -79.149     352.188
  O     -156.873     -79.856     350.073
  H     -155.989     -80.159     349.802
  H     -156.085     -82.447     351.198
  H     -156.575     -82.929     352.841
  H     -155.351     -81.661     352.624
  H     -165.162     -79.786     347.061
  H     -163.501     -79.866     346.523
  H     -164.497     -78.498     346.085

 3  4  5  6  7  8  9  10  11  12  22  25  29  30  31  32 0
 6-311+G(2d,p)
 ****
 33  36  37 0
 6-311+G(2d,p)
 ****
 1  2  13  14  15  16  17  18  19  20  21  23  24  26 0
 3-21G
 ****
 27  28  34  35  38  39  40  41  42  43  44  45  46  47  48 0
 3-21G
 ****


