%nproc=1
%NoSave
%Mem=1900MB
#P OB98/GEN NMR

erre ene a

0 1
  C      -17.797    -352.021    -432.934
  O      -17.620    -352.055    -431.523
  P      -16.174    -351.668    -430.946
  C      -17.045    -349.216    -430.793
  O      -15.988    -350.086    -431.183
  C      -16.866    -348.743    -429.351
  O      -15.610    -348.006    -429.253
  C      -17.986    -347.825    -428.833
  O      -18.152    -348.111    -427.445
  C      -17.371    -346.444    -429.036
  O      -18.015    -345.410    -428.303
  C      -15.920    -346.730    -428.654
  N      -13.277    -342.550    -427.326
  C      -14.052    -343.394    -426.604
  N      -14.719    -344.490    -427.022
  C      -14.518    -344.698    -428.339
  C      -13.769    -343.919    -429.203
  C      -13.127    -342.793    -428.649
  N      -12.332    -341.931    -429.386
  N      -13.809    -344.424    -430.489
  C      -14.574    -345.493    -430.396
  N      -15.009    -345.705    -429.119
  O      -15.171    -352.320    -432.006
  O      -15.901    -352.138    -429.547
  H      -18.921    -345.266    -428.642
  H      -14.384    -352.691    -431.564
  H      -14.160    -343.155    -425.548
  H      -14.852    -346.132    -431.230
  H      -15.793    -346.823    -427.563
  H      -17.449    -346.174    -430.094
  H      -18.940    -347.965    -429.346
  H      -16.774    -349.633    -428.704
  H      -18.003    -349.750    -430.870
  H      -12.086    -341.052    -428.941
  H      -12.395    -342.001    -430.398
  H      -17.087    -348.363    -431.490
  P      -19.542    -347.725    -426.734
  C      -20.264    -350.201    -426.778
  O      -20.558    -348.891    -427.213
  O      -20.016    -346.492    -427.635
  O      -19.469    -347.443    -425.272
  H      -19.988    -346.712    -428.588
  H      -21.075    -350.864    -427.090
  H      -20.183    -350.229    -425.680
  H      -19.332    -350.546    -427.233
  H      -18.802    -352.300    -433.174
  H      -17.117    -352.706    -433.395
  H      -17.606    -351.032    -433.294

 3  4  5  6  7  8  9  10  11  12  22  25  29  30  31  32 0
 6-311+G(2d,p)
 ****
 33  36  37 0
 6-311+G(2d,p)
 ****
 1  2  13  14  15  16  17  18  19  20  21  23  24  26 0
 3-21G
 ****
 27  28  34  35  38  39  40  41  42  43  44  45  46  47  48 0
 3-21G
 ****


