%nproc=1
%NoSave
%Mem=1900MB
#P OB98/GEN NMR

erre ene a

0 1
  C      537.849    -953.405    1016.482
  O      536.921    -953.937    1015.557
  H      537.337    -953.216    1017.430
  H      538.251    -952.466    1016.109
  H      538.654    -954.117    1016.657
  P      537.441    -954.191    1014.060
  C      536.800    -955.818    1012.132
  O      536.444    -955.253    1013.395
  C      536.273    -957.252    1012.052
  O      536.951    -958.080    1013.013
  C      534.790    -957.379    1012.375
  O      533.965    -957.015    1011.292
  C      534.703    -958.870    1012.686
  O      534.553    -959.659    1011.497
  C      536.061    -959.149    1013.368
  N      535.911    -959.294    1014.809
  C      535.507    -960.556    1015.266
  O      535.267    -961.488    1014.501
  N      535.338    -960.680    1016.602
  C      535.484    -959.684    1017.539
  O      535.252    -959.856    1018.735
  C      535.898    -958.377    1017.013
  C      536.092    -958.235    1015.701
  O      538.785    -955.019    1014.288
  O      537.666    -952.960    1013.258
  H      539.565    -954.451    1014.113
  H      533.725    -959.335    1011.064
  H      535.031    -961.587    1016.955
  H      536.027    -957.559    1017.712
  H      536.399    -957.276    1015.272
  H      536.491    -960.087    1012.975
  H      533.850    -959.076    1013.335
  H      534.554    -956.810    1013.283
  H      536.480    -957.643    1011.047
  H      537.895    -955.838    1012.037
  H      536.389    -955.191    1011.336
  P      532.406    -956.704    1011.612
  C      530.725    -954.886    1010.732
  O      532.064    -955.331    1010.853
  O      532.501    -956.299    1013.149
  O      531.506    -957.862    1011.313
  H      533.380    -955.925    1013.387
  H      530.704    -953.959    1010.198
  H      530.306    -954.746    1011.707
  H      530.153    -955.617    1010.200

 6  7  8  9  10  11  12  13  14  15  16  27  31  32  33  34  35 0
 6-311+G(2d,p)
 ****
 36  37 0
 6-311+G(2d,p)
 ****
 1  2  3  4  5  17  18  19  20  21  22  23  24  25 0
 3-21G
 ****
 26  28  29  30  38  39  40  41  42  43  44  45 0
 3-21G
 ****


