%nproc=1
%NoSave
%Mem=1900MB
#P OB98/GEN NMR

erre ene a

0 1
  C       73.769     290.795    -220.641
  O       73.017     291.719    -219.871
  P       71.633     292.258    -220.461
  C       72.702     294.195    -221.832
  O       71.952     292.991    -221.856
  C       72.241     295.134    -222.946
  O       72.474     294.498    -224.244
  C       70.751     295.502    -222.882
  O       70.616     296.845    -223.367
  C       70.130     294.533    -223.877
  O       68.851     294.948    -224.335
  C       71.222     294.526    -224.954
  N       71.101     293.394    -225.876
  C       70.204     293.526    -226.932
  O       69.520     294.525    -227.133
  N       70.070     292.422    -227.744
  C       70.661     291.204    -227.544
  O       70.406     290.228    -228.238
  C       71.596     291.125    -226.414
  C       71.772     292.203    -225.643
  O       71.254     293.465    -219.477
  O       70.546     291.236    -220.536
  H       68.282     295.049    -223.550
  H       70.587     293.170    -218.826
  H       69.434     292.501    -228.520
  H       72.092     290.179    -226.242
  H       72.436     292.169    -224.787
  H       71.201     295.462    -225.526
  H       70.024     293.550    -223.411
  H       70.321     295.408    -221.881
  H       72.859     296.041    -222.919
  H       73.760     293.958    -221.973
  H       72.595     294.680    -220.854
  P       69.534     297.796    -222.650
  C       67.746     297.283    -224.491
  O       68.089     297.286    -223.120
  O       69.747     299.156    -223.464
  O       69.741     297.940    -221.175
  H       69.842     299.012    -224.421
  H       68.613     297.061    -225.118
  H       67.347     298.264    -224.765
  H       66.981     296.526    -224.662
  H       74.662     290.533    -220.112
  H       74.028     291.240    -221.579
  H       73.185     289.915    -220.812

 3  4  5  6  7  8  9  10  11  12  13  23  28  29  30  31  32 0
 6-311+G(2d,p)
 ****
 33  34 0
 6-311+G(2d,p)
 ****
 1  2  14  15  16  17  18  19  20  21  22  24  25  26 0
 3-21G
 ****
 27  35  36  37  38  39  40  41  42  43  44  45 0
 3-21G
 ****


