%nproc=1
%NoSave
%Mem=1900MB
#P OB98/GEN NMR

erre ene a

0 1
  C       25.693      15.961       0.629
  O       26.201      14.640       0.697
  P       26.313      13.823      -0.680
  C       24.601      11.902      -1.075
  O       24.840      13.303      -1.034
  C       23.887      11.453       0.198
  O       22.630      12.144       0.332
  C       23.542       9.971       0.242
  O       24.690       9.185       0.517
  C       22.485       9.962       1.340
  O       23.114      10.021       2.630
  C       21.726      11.272       1.062
  N       16.687      10.391       1.263
  C       17.622      10.506       2.232
  N       18.947      10.718       2.099
  C       19.283      10.822       0.803
  C       18.447      10.705      -0.293
  C       17.087      10.482      -0.027
  N       16.138      10.360      -1.019
  N       19.154      10.844      -1.467
  C       20.397      11.054      -1.086
  N       20.523      11.064       0.276
  O       27.083      12.490      -0.251
  O       27.018      14.546      -1.785
  H       23.677      10.821       2.642
  H       27.665      12.175      -0.969
  H       17.256      10.417       3.251
  H       21.233      11.208      -1.755
  H       21.435      11.792       1.981
  H       21.853       9.069       1.322
  H       23.097       9.653      -0.709
  H       24.520      11.722       1.054
  H       25.554      11.370      -1.151
  H       15.216      10.054      -0.748
  H       16.458      10.287      -1.976
  H       24.004      11.669      -1.962
  P       24.596       7.612       0.211
  C       24.485       5.989       2.198
  O       23.822       7.019       1.488
  O       26.101       7.142       0.465
  O       24.019       7.266      -1.118
  H       26.452       7.480       1.307
  H       23.879       5.716       3.065
  H       25.464       6.335       2.542
  H       24.604       5.109       1.558
  H       25.672      16.386       1.611
  H       24.701      15.942       0.228
  H       26.322      16.553      -0.003

 3  4  5  6  7  8  9  10  11  12  22  25  29  30  31  32 0
 6-311+G(2d,p)
 ****
 33  36  37 0
 6-311+G(2d,p)
 ****
 1  2  13  14  15  16  17  18  19  20  21  23  24  26 0
 3-21G
 ****
 27  28  34  35  38  39  40  41  42  43  44  45  46  47  48 0
 3-21G
 ****


