%nproc=1
%NoSave
%Mem=1900MB
#P OB98/GEN NMR

erre ene a

0 1
  C       47.744     651.090     241.743
  O       47.974     649.972     242.609
  P       49.049     650.122     243.790
  C       50.707     648.278     243.082
  O       50.489     649.676     243.239
  C       51.216     647.964     241.667
  O       52.411     648.748     241.363
  C       51.594     646.487     241.496
  O       51.328     646.057     240.144
  C       53.099     646.498     241.685
  O       53.708     645.343     241.112
  C       53.462     647.825     241.016
  N       58.532     647.450     240.427
  C       57.509     646.838     239.794
  N       56.183     647.011     239.982
  C       55.955     647.919     240.948
  C       56.904     648.625     241.678
  C       58.249     648.347     241.393
  N       59.295     648.941     242.072
  N       56.285     649.469     242.582
  C       55.011     649.247     242.434
  N       54.752     648.340     241.438
  O       48.664     649.514     245.096
  O       49.211     651.713     243.926
  H       54.675     645.448     241.201
  H       49.249     651.948     244.877
  H       57.795     646.127     239.027
  H       54.216     649.692     243.030
  H       53.476     647.740     239.927
  H       53.331     646.515     242.760
  H       51.091     645.806     242.186
  H       50.452     648.260     240.944
  H       49.777     647.738     243.266
  H       60.228     648.603     241.881
  H       59.099     649.508     242.884
  H       51.414     647.941     243.847
  P       49.887     645.378     239.902
  C       50.520     642.843     240.017
  O       49.932     643.965     240.645
  O       49.481     645.354     238.466
  O       48.935     646.288     240.816
  H       49.254     646.402     241.735
  H       50.566     642.019     240.739
  H       51.535     643.069     239.684
  H       49.909     642.537     239.165
  H       47.005     650.831     241.014
  H       48.656     651.352     241.248
  H       47.399     651.923     242.320

 3  4  5  6  7  8  9  10  11  12  22  25  29  30  31  32 0
 6-311+G(2d,p)
 ****
 33  36  37 0
 6-311+G(2d,p)
 ****
 1  2  13  14  15  16  17  18  19  20  21  23  24  26 0
 3-21G
 ****
 27  28  34  35  38  39  40  41  42  43  44  45  46  47  48 0
 3-21G
 ****


