%nproc=1
%NoSave
%Mem=1900MB
#P OB98/GEN NMR

erre ene a

0 1
  C      164.740     464.521     180.310
  O      164.969     463.101     180.285
  P      164.131     462.108     179.353
  C      163.461     459.677     179.883
  O      164.534     460.600     179.708
  C      163.936     458.358     180.505
  O      165.128     457.886     179.866
  C      164.287     458.456     181.993
  O      163.109     458.435     182.780
  C      165.185     457.236     182.164
  O      164.407     456.037     182.311
  C      165.943     457.217     180.822
  N      170.998     456.385     181.229
  C      169.938     455.540     181.146
  N      168.626     455.838     181.044
  C      168.442     457.166     181.018
  C      169.411     458.158     181.110
  C      170.748     457.721     181.214
  N      171.815     458.592     181.320
  N      168.844     459.422     181.064
  C      167.553     459.188     180.932
  N      167.252     457.851     180.911
  O      164.189     462.435     177.896
  O      162.615     462.220     179.898
  H      164.064     456.015     183.230
  H      161.997     462.038     179.177
  H      170.190     454.485     181.152
  H      166.794     459.960     180.869
  H      166.107     456.187     180.466
  H      165.838     457.305     183.045
  H      164.861     459.357     182.187
  H      163.146     457.602     180.350
  H      163.009     459.483     178.906
  H      172.733     458.198     181.436
  H      171.633     459.588     181.369
  H      162.704     460.140     180.533
  P      162.496     459.812     183.325
  C      161.667     458.446     185.359
  O      161.332     459.424     184.368
  O      162.101     460.802     182.290
  O      163.645     460.388     184.290
  H      163.600     461.369     184.284
  H      161.600     457.451     184.909
  H      160.942     458.521     186.174
  H      162.671     458.618     185.747
  H      165.414     464.979     181.003
  H      163.732     464.714     180.612
  H      164.904     464.926     179.333

 3  4  5  6  7  8  9  10  11  12  22  25  29  30  31  32 0
 6-311+G(2d,p)
 ****
 33  36  37 0
 6-311+G(2d,p)
 ****
 1  2  13  14  15  16  17  18  19  20  21  23  24  26 0
 3-21G
 ****
 27  28  34  35  38  39  40  41  42  43  44  45  46  47  48 0
 3-21G
 ****


