%nproc=1
%NoSave
%Mem=1900MB
#P OB98/GEN NMR

erre ene a

0 1
  C     -160.482     254.105     -52.756
  O     -159.501     253.999     -53.769
  H     -160.085     254.656     -51.897
  H     -161.341     254.649     -53.157
  H     -160.809     253.107     -52.443
  P     -158.111     253.321     -53.341
  C     -156.545     255.170     -54.262
  O     -157.014     253.838     -54.394
  C     -155.844     255.615     -55.538
  O     -154.627     254.858     -55.730
  C     -156.651     255.407     -56.815
  O     -157.631     256.422     -56.995
  C     -155.552     255.498     -57.864
  O     -155.245     256.881     -58.130
  C     -154.364     254.824     -57.161
  N     -151.399     251.613     -59.860
  C     -151.333     252.951     -59.661
  N     -152.162     253.740     -58.946
  C     -153.135     253.010     -58.375
  C     -153.332     251.644     -58.484
  C     -152.412     250.933     -59.275
  N     -152.494     249.573     -59.481
  N     -154.428     251.247     -57.749
  C     -154.890     252.349     -57.204
  N     -154.148     253.448     -57.559
  O     -158.307     251.781     -53.742
  O     -157.742     253.472     -51.904
  H     -154.636     256.889     -58.895
  H     -157.853     251.222     -53.084
  H     -150.502     253.456     -60.147
  H     -155.751     252.407     -56.550
  H     -153.430     255.377     -57.321
  H     -155.823     255.037     -58.815
  H     -157.098     254.405     -56.844
  H     -155.566     256.671     -55.426
  H     -155.838     255.231     -53.427
  H     -151.708     249.096     -59.887
  H     -153.254     249.068     -59.032
  H     -157.398     255.826     -54.049
  P     -159.168     255.959     -57.064
  C     -159.896     257.586     -58.953
  O     -159.982     257.249     -57.572
  O     -159.581     255.844     -55.523
  O     -159.420     254.688     -57.801
  H     -160.323     255.217     -55.424
  H     -160.484     258.459     -59.144
  H     -160.264     256.772     -59.542
  H     -158.876     257.779     -59.210

 6  7  8  9  10  11  12  13  14  15  25  28  32  33  34  35 0
 6-311+G(2d,p)
 ****
 36  39  40 0
 6-311+G(2d,p)
 ****
 1  2  3  4  5  16  17  18  19  20  21  22  23  24 0
 3-21G
 ****
 26  27  29  30  31  37  38  41  42  43  44  45  46  47  48 0
 3-21G
 ****


