%nproc=1
%NoSave
%Mem=1900MB
#P OB98/GEN NMR

erre ene a

0 1
  C      -68.876    -710.820    -795.189
  O      -70.173    -710.554    -795.696
  P      -71.275    -711.715    -795.594
  C      -72.593    -710.796    -793.542
  O      -72.583    -711.040    -794.951
  C      -73.992    -710.407    -793.072
  O      -74.398    -709.187    -793.722
  C      -75.079    -711.416    -793.390
  O      -75.098    -712.497    -792.466
  C      -76.330    -710.574    -793.257
  O      -76.704    -710.466    -791.873
  C      -75.855    -709.193    -793.813
  N      -79.703    -708.155    -796.913
  C      -79.706    -708.326    -795.541
  N      -80.873    -708.172    -794.893
  N      -78.624    -708.628    -794.854
  C      -77.506    -708.718    -795.614
  C      -77.395    -708.565    -796.996
  C      -78.606    -708.285    -797.744
  O      -78.685    -708.191    -798.964
  N      -76.099    -708.724    -797.407
  C      -75.412    -708.916    -796.278
  N      -76.236    -708.948    -795.181
  O      -70.714    -712.623    -794.398
  O      -71.479    -712.497    -796.839
  H      -75.878    -710.418    -791.369
  H      -71.037    -713.548    -794.487
  H      -80.565    -707.899    -797.387
  H      -74.343    -709.033    -796.235
  H      -76.209    -708.372    -793.197
  H      -77.189    -710.992    -793.807
  H      -81.704    -707.803    -795.359
  H      -74.979    -711.793    -794.423
  H      -80.880    -708.232    -793.900
  H      -73.935    -710.220    -791.983
  H      -71.890    -709.971    -793.309
  H      -72.242    -711.710    -793.034
  P      -75.177    -713.987    -793.057
  C      -72.682    -714.190    -792.373
  O      -73.958    -714.788    -792.383
  O      -74.733    -713.774    -794.583
  O      -76.539    -714.612    -792.956
  H      -75.124    -714.477    -795.150
  H      -72.733    -713.106    -792.235
  H      -72.171    -714.410    -793.316
  H      -72.100    -714.616    -791.571
  H      -68.256    -709.959    -795.326
  H      -68.452    -711.652    -795.712
  H      -68.941    -711.050    -794.146

 3  4  5  6  7  8  9  10  11  12  23  26  30  31  33  0
 6-311+G(2d,p)
 ****
 35  36  37  38 0
 6-311+G(2d,p)
 ****
 1  2  13  14  15  16  17  18  19  20  21  22  24  25  27  28  29 0
 3-21G
 ****
 32  34  39  40  41  42  43  44  45  46  47  48  49 0
 3-21G
 ****


