%nproc=1
%NoSave
%Mem=1900MB
#P OB98/GEN NMR

erre ene a

0 1
  C      302.545    -181.481    -163.364
  O      301.677    -180.432    -162.932
  P      302.239    -178.924    -163.013
  C      302.633    -178.561    -160.445
  O      303.206    -178.754    -161.738
  C      303.402    -177.464    -159.685
  O      302.604    -177.027    -158.533
  C      304.786    -177.889    -159.165
  O      305.635    -176.739    -159.291
  C      304.517    -178.184    -157.697
  O      305.708    -178.114    -156.921
  C      303.464    -177.124    -157.379
  N      302.702    -177.430    -156.166
  C      303.258    -177.031    -154.947
  O      304.368    -176.508    -154.861
  N      302.501    -177.290    -153.835
  C      301.317    -177.972    -153.805
  O      300.685    -178.170    -152.777
  C      300.834    -178.470    -155.110
  C      301.541    -178.180    -156.209
  O      300.930    -178.086    -162.639
  O      302.852    -178.602    -164.337
  H      300.374    -178.506    -161.966
  H      306.061    -177.206    -156.962
  H      302.874    -176.973    -152.943
  H      299.925    -179.060    -155.121
  H      301.229    -178.553    -157.181
  H      303.939    -176.142    -157.242
  H      304.096    -179.190    -157.598
  H      305.200    -178.721    -159.720
  H      303.495    -176.596    -160.350
  H      302.693    -179.487    -159.870
  H      301.575    -178.305    -160.554
  P      306.542    -176.609    -160.625
  C      308.907    -177.176    -159.627
  O      307.805    -177.574    -160.433
  O      307.163    -175.150    -160.397
  O      305.791    -176.728    -161.922
  H      307.508    -175.019    -159.491
  H      309.531    -178.048    -159.439
  H      308.571    -176.754    -158.677
  H      309.500    -176.425    -160.175
  H      302.048    -182.422    -163.257
  H      303.434    -181.477    -162.768
  H      302.804    -181.329    -164.391

 3  4  5  6  7  8  9  10  11  12  13  24  28  29  30  31  32 0
 6-311+G(2d,p)
 ****
 33  34 0
 6-311+G(2d,p)
 ****
 1  2  14  15  16  17  18  19  20  21  22  23  25  26  27 0
 3-21G
 ****
 35  36  37  38  39  40  41  42  43  44  45 0
 3-21G
 ****


