%nproc=1
%NoSave
%Mem=1900MB
#P OB98/GEN NMR

erre ene a

0 1
  C       35.666      13.437      40.359
  O       36.138      14.235      41.422
  H       34.733      12.960      40.669
  H       36.398      12.658      40.127
  H       35.472      14.037      39.468
  P       37.305      15.292      41.135
  C       39.050      13.393      41.240
  O       38.660      14.670      41.724
  C       40.067      12.740      42.184
  O       41.279      13.537      42.192
  C       39.550      12.700      43.625
  O       40.102      11.614      44.363
  C       40.070      14.006      44.204
  O       40.173      13.986      45.628
  C       41.413      14.140      43.490
  N       43.044      18.350      45.854
  C       42.504      17.200      46.394
  N       42.387      17.167      47.742
  N       42.095      16.186      45.677
  C       42.207      16.387      44.343
  C       42.703      17.491      43.689
  C       43.185      18.593      44.494
  O       43.650      19.644      44.066
  N       42.648      17.333      42.326
  C       42.116      16.140      42.156
  N       41.853      15.515      43.351
  O       36.997      16.482      42.162
  O       37.392      15.791      39.725
  H       40.632      14.803      45.898
  H       37.408      17.309      41.855
  H       43.370      19.089      46.452
  H       41.915      15.679      41.198
  H       42.196      13.597      44.032
  H       39.367      14.800      43.943
  H       42.504      17.995      48.305
  H       38.465      12.652      43.682
  H       41.723      16.487      48.122
  H       40.343      11.748      41.811
  H       39.487      13.547      40.251
  H       38.176      12.752      41.112
  P       39.310      10.222      44.386
  C       38.717      10.406      46.958
  O       39.238       9.663      45.879
  O       40.299       9.210      43.645
  O       37.964      10.269      43.733
  H       39.900       8.893      42.813
  H       38.775       9.823      47.853
  H       37.695      10.654      46.760
  H       39.285      11.304      47.080

 6  7  8  9  10  11  12  13  14  15  26  29  33  34 0
 6-311+G(2d,p)
 ****
 36  38  39  40  41 0
 6-311+G(2d,p)
 ****
 1  2  3  4  5  16  17  18  19  20  21  22  23  24  25 0
 3-21G
 ****
 27  28  30  31  32  35  37  42  43  44  45  46  47 0
 3-21G
 ****
 48  49 0
 3-21G
 ****


