%nproc=1
%NoSave
%Mem=1900MB
#P OB98/GEN NMR

erre ene a

0 1
  C     -873.642    -898.220    1829.724
  O     -872.301    -898.130    1829.229
  P     -872.075    -897.670    1827.718
  C     -870.060    -896.000    1827.648
  O     -871.479    -896.190    1827.726
  C     -869.576    -895.160    1828.835
  O     -869.828    -895.830    1830.082
  C     -868.069    -894.900    1828.792
  O     -867.751    -893.790    1827.970
  C     -867.795    -894.540    1830.242
  O     -868.185    -893.160    1830.486
  C     -868.723    -895.500    1830.998
  N     -867.518    -898.280    1835.059
  C     -868.228    -897.080    1834.954
  N     -868.682    -896.570    1836.117
  N     -868.464    -896.480    1833.823
  C     -867.970    -897.120    1832.748
  C     -867.258    -898.300    1832.706
  C     -866.969    -898.960    1833.970
  O     -866.336    -900.000    1834.111
  N     -866.910    -898.620    1831.427
  C     -867.432    -897.660    1830.701
  N     -868.084    -896.720    1831.438
  O     -873.556    -897.450    1827.189
  O     -871.308    -898.670    1826.889
  H     -868.020    -892.990    1831.439
  H     -873.599    -897.630    1826.211
  H     -867.357    -898.700    1835.946
  H     -867.372    -897.620    1829.602
  H     -869.189    -895.050    1831.886
  H     -866.737    -894.620    1830.513
  H     -868.587    -897.020    1837.019
  H     -867.521    -895.810    1828.510
  H     -869.233    -895.720    1836.069
  H     -870.107    -894.200    1828.833
  H     -869.823    -895.500    1826.692
  H     -869.590    -896.990    1827.595
  P     -866.804    -894.060    1826.680
  C     -867.994    -892.490    1824.970
  O     -867.720    -893.830    1825.389
  O     -866.609    -895.640    1826.705
  O     -865.511    -893.330    1826.712
  H     -865.726    -895.890    1826.364
  H     -868.515    -892.520    1824.014
  H     -867.055    -891.950    1824.854
  H     -868.651    -891.980    1825.704
  H     -873.625    -898.539    1830.745
  H     -874.192    -898.927    1829.139
  H     -874.112    -897.261    1829.658

 3  4  5  6  7  8  9  10  11  12  23  26  30  31 0
 6-311+G(2d,p)
 ****
 33  35  36  37  38 0
 6-311+G(2d,p)
 ****
 1  2  13  14  15  16  17  18  19  20  21  22  24  25 0
 3-21G
 ****
 27  28  29  32  34  39  40  41  42  43  44  45  46  47  48  49 0
 3-21G
 ****


