%nproc=1
%NoSave
%Mem=1900MB
#P OB98/GEN NMR

erre ene a

0 1
  C     -624.647      93.872    -197.180
  O     -625.232      92.894    -198.016
  P     -626.602      92.165    -197.597
  C     -627.800      94.350    -198.236
  O     -627.653      93.330    -197.254
  C     -628.733      95.452    -197.739
  O     -628.657      96.573    -198.654
  C     -630.190      95.019    -197.656
  O     -630.798      95.648    -196.528
  C     -630.824      95.591    -198.918
  O     -632.233      95.812    -198.742
  C     -629.994      96.857    -199.117
  N     -632.383      99.298    -202.952
  C     -632.728      99.105    -201.662
  N     -632.056      98.429    -200.707
  C     -630.888      97.966    -201.184
  C     -630.406      98.080    -202.480
  C     -631.209      98.780    -203.390
  N     -630.852      98.987    -204.710
  N     -629.183      97.442    -202.607
  C     -628.928      96.972    -201.408
  N     -629.925      97.264    -200.513
  O     -626.456      91.130    -196.535
  O     -627.167      91.553    -198.960
  H     -632.545      96.314    -199.527
  H     -627.575      90.680    -198.791
  H     -633.663      99.564    -201.358
  H     -628.055      96.399    -201.138
  H     -630.390      97.705    -198.533
  H     -630.700      94.886    -199.748
  H     -630.310      93.931    -197.589
  H     -628.372      95.800    -196.768
  H     -628.221      93.896    -199.142
  H     -631.431      99.604    -205.253
  H     -629.906      98.760    -204.989
  H     -626.815      94.758    -198.488
  P     -632.089      94.902    -195.919
  C     -630.752      93.063    -194.641
  O     -631.621      93.386    -195.710
  O     -633.317      95.127    -196.737
  O     -632.149      95.528    -194.443
  H     -631.258      95.843    -194.151
  H     -630.521      91.992    -194.691
  H     -631.248      93.265    -193.687
  H     -629.825      93.638    -194.716
  H     -623.747      94.235    -197.631
  H     -624.419      93.438    -196.229
  H     -625.332      94.683    -197.047

 3  4  5  6  7  8  9  10  11  12  22  25  29  30  31  32 0
 6-311+G(2d,p)
 ****
 33  36  37 0
 6-311+G(2d,p)
 ****
 1  2  13  14  15  16  17  18  19  20  21  23  24  26 0
 3-21G
 ****
 27  28  34  35  38  39  40  41  42  43  44  45  46  47  48 0
 3-21G
 ****


