%nproc=1
%NoSave
%Mem=1900MB
#P OB98/GEN NMR

erre ene a

0 1
  C      113.584    -238.948     117.323
  O      114.294    -237.791     117.783
  P      113.746    -236.817     118.938
  C      114.228    -234.592     117.703
  O      114.527    -235.418     118.824
  C      115.318    -233.535     117.500
  O      116.461    -234.119     116.830
  C      114.928    -232.360     116.617
  O      114.046    -231.465     117.267
  C      116.298    -231.766     116.289
  O      116.746    -230.882     117.327
  C      117.196    -233.019     116.241
  N      117.642    -233.347     114.898
  C      118.740    -232.630     114.409
  O      119.231    -231.716     115.071
  N      119.240    -232.960     113.175
  C      118.636    -233.849     112.450
  N      119.189    -234.148     111.242
  C      117.397    -234.530     112.872
  C      116.963    -234.235     114.095
  O      113.787    -237.417     120.306
  O      112.246    -236.456     118.510
  H      111.725    -236.238     119.305
  H      117.670    -230.646     117.115
  H      116.901    -235.233     112.219
  H      116.065    -234.701     114.493
  H      118.070    -232.879     116.887
  H      116.286    -231.191     115.356
  H      114.466    -232.738     115.694
  H      115.637    -233.181     118.490
  H      120.045    -233.671     110.988
  H      113.275    -234.083     117.894
  H      118.811    -234.842     110.611
  H      114.116    -235.218     116.813
  P      112.740    -231.012     116.451
  C      112.459    -228.450     116.769
  O      112.106    -229.749     117.207
  O      111.691    -232.191     116.731
  O      112.960    -230.821     114.986
  H      111.181    -232.375     115.922
  H      111.640    -227.767     117.007
  H      112.644    -228.422     115.689
  H      113.356    -228.123     117.300
  H      114.149    -239.431     116.554
  H      112.633    -238.651     116.934
  H      113.440    -239.626     118.138

 3  4  5  6  7  8  9  10  11  12  13  24  27  28  29  30  32 0
 6-311+G(2d,p)
 ****
 34  35 0
 6-311+G(2d,p)
 ****
 1  2  14  15  16  17  18  19  20  21  22  23  25  26 0
 3-21G
 ****
 31  33  36  37  38  39  40  41  42  43  44  45  46 0
 3-21G
 ****


