%nproc=1
%NoSave
%Mem=1900MB
#P OB98/GEN NMR

erre ene a

0 1
  C       82.278     -90.463    -139.044
  O       83.195     -91.507    -139.298
  H       82.641     -89.555    -139.533
  H       82.204     -90.273    -137.971
  H       81.293     -90.708    -139.450
  P       82.892     -92.957    -138.681
  C       84.499     -92.264    -136.770
  O       83.230     -92.797    -137.117
  C       84.370     -91.334    -135.567
  O       83.426     -90.271    -135.824
  C       83.858     -91.999    -134.294
  O       84.812     -92.830    -133.659
  C       83.525     -90.767    -133.471
  O       84.738     -90.182    -132.966
  C       82.869     -89.865    -134.544
  N       81.412     -89.976    -134.558
  C       80.718     -89.250    -133.581
  O       81.324     -88.568    -132.757
  N       79.347     -89.342    -133.539
  C       78.726     -90.108    -134.381
  N       77.368     -90.165    -134.289
  C       79.418     -90.905    -135.412
  C       80.744     -90.791    -135.445
  O       83.552     -94.111    -139.365
  O       81.295     -93.058    -138.657
  H       85.053     -90.760    -132.247
  H       81.054     -93.945    -138.293
  H       78.856     -91.550    -136.070
  H       81.323     -91.352    -136.170
  H       83.143     -88.814    -134.389
  H       82.887     -90.981    -132.612
  H       82.928     -92.548    -134.487
  H       85.349     -90.863    -135.409
  H       76.922     -89.608    -133.573
  H       84.894     -91.729    -137.639
  H       76.810     -90.793    -134.853
  H       85.186     -93.074    -136.508
  P       84.514     -94.412    -133.658
  C       84.004     -94.280    -131.101
  O       83.577     -94.691    -132.389
  O       85.922     -95.045    -133.252
  O       83.985     -94.959    -134.946
  H       86.404     -95.355    -134.044
  H       83.261     -94.544    -130.378
  H       84.147     -93.220    -131.094
  H       84.926     -94.766    -130.859

 6  7  8  9  10  11  12  13  14  15  16  26  30  31  32  33  35 0
 6-311+G(2d,p)
 ****
 37  38 0
 6-311+G(2d,p)
 ****
 1  2  3  4  5  17  18  19  20  21  22  23  24  25 0
 3-21G
 ****
 27  28  29  34  36  39  40  41  42  43  44  45  46 0
 3-21G
 ****


