%nproc=1
%NoSave
%Mem=1900MB
#P OB98/GEN NMR

erre ene a

0 1
  C      466.857     -59.253     -46.674
  O      468.123     -59.818     -47.064
  P      468.259     -60.512     -48.506
  C      469.621     -58.718     -49.838
  O      468.375     -59.364     -49.620
  C      469.886     -58.575     -51.340
  O      468.884     -57.728     -51.953
  C      471.218     -57.925     -51.684
  O      472.304     -58.822     -51.526
  C      470.986     -57.503     -53.129
  O      471.208     -58.603     -54.028
  C      469.494     -57.114     -53.111
  N      469.290     -55.668     -53.114
  C      469.652     -54.996     -54.279
  O      470.174     -55.552     -55.242
  N      469.426     -53.647     -54.281
  C      468.949     -52.909     -53.236
  O      468.787     -51.696     -53.295
  C      468.661     -53.660     -52.008
  C      468.846     -54.984     -52.002
  O      466.772     -61.061     -48.754
  O      469.255     -61.621     -48.600
  H      471.120     -58.247     -54.934
  H      466.805     -61.846     -49.333
  H      469.654     -53.143     -55.125
  H      468.301     -53.110     -51.144
  H      468.638     -55.553     -51.102
  H      468.980     -57.541     -53.981
  H      471.650     -56.693     -53.443
  H      471.367     -57.028     -51.072
  H      469.812     -59.571     -51.798
  H      470.419     -59.315     -49.391
  H      469.603     -57.735     -49.353
  P      472.933     -58.943     -50.051
  C      471.647     -61.029     -49.146
  O      471.790     -59.628     -49.162
  O      472.946     -57.406     -49.604
  O      474.270     -59.606     -50.041
  H      472.196     -56.908     -49.974
  H      472.611     -61.537     -49.258
  H      470.981     -61.333     -49.959
  H      471.202     -61.329     -48.192
  H      466.940     -58.835     -45.693
  H      466.110     -60.019     -46.673
  H      466.580     -58.486     -47.367

 3  4  5  6  7  8  9  10  11  12  13  23  28  29  30  31  32 0
 6-311+G(2d,p)
 ****
 33  34 0
 6-311+G(2d,p)
 ****
 1  2  14  15  16  17  18  19  20  21  22  24  25  26 0
 3-21G
 ****
 27  35  36  37  38  39  40  41  42  43  44  45 0
 3-21G
 ****


