%nproc=1
%NoSave
%Mem=1900MB
#P OB98/GEN NMR

erre ene a

0 1
  C     -833.972     353.321     172.582
  O     -833.854     352.943     173.961
  P     -832.474     352.414     174.582
  C     -832.050     354.527     175.993
  O     -831.560     353.674     174.962
  C     -831.348     355.892     175.987
  O     -831.609     356.589     174.749
  C     -831.789     356.832     177.105
  O     -831.157     356.484     178.324
  C     -831.371     358.188     176.531
  O     -829.967     358.413     176.734
  C     -831.673     358.002     175.033
  N     -834.114     362.177     173.382
  C     -832.817     361.943     173.656
  N     -832.239     360.801     174.098
  C     -833.160     359.831     174.227
  C     -834.524     359.926     173.991
  C     -835.007     361.169     173.553
  N     -836.331     361.409     173.290
  N     -835.150     358.724     174.264
  C     -834.177     357.915     174.640
  N     -832.960     358.541     174.635
  O     -831.781     351.383     173.753
  O     -832.879     351.812     176.011
  H     -829.852     358.713     177.652
  H     -832.252     351.106     176.261
  H     -832.141     362.781     173.500
  H     -834.310     356.882     174.917
  H     -830.911     358.480     174.406
  H     -831.912     359.023     176.986
  H     -832.879     356.803     177.213
  H     -830.266     355.713     176.035
  H     -831.879     354.032     176.958
  H     -836.601     362.339     173.005
  H     -837.005     360.677     173.459
  H     -833.130     354.660     175.855
  P     -831.780     355.333     179.250
  C     -829.845     353.694     178.850
  O     -831.234     353.932     178.689
  O     -833.257     355.400     179.453
  O     -830.996     355.489     180.634
  H     -831.567     355.201     181.363
  H     -829.295     354.221     178.079
  H     -829.666     352.620     178.756
  H     -829.510     354.025     179.837
  H     -834.974     353.641     172.384
  H     -833.737     352.482     171.961
  H     -833.294     354.121     172.372

 3  4  5  6  7  8  9  10  11  12  22  25  29  30  31  32 0
 6-311+G(2d,p)
 ****
 33  36  37 0
 6-311+G(2d,p)
 ****
 1  2  13  14  15  16  17  18  19  20  21  23  24  26 0
 3-21G
 ****
 27  28  34  35  38  39  40  41  42  43  44  45  46  47  48 0
 3-21G
 ****


