%nproc=1
%NoSave
%Mem=1900MB
#P OB98/GEN NMR

erre ene a

0 1
  C      185.858     357.911      26.628
  O      185.143     356.726      26.322
  P      184.921     355.651      27.490
  C      183.583     355.719      29.712
  O      184.389     356.434      28.786
  C      183.698     356.325      31.114
  O      185.012     356.035      31.661
  C      183.520     357.845      31.144
  O      182.881     358.226      32.371
  C      184.940     358.368      31.193
  O      184.998     359.682      31.748
  C      185.612     357.287      32.043
  N      190.003     359.423      33.342
  C      188.761     359.545      33.932
  N      188.664     360.420      34.954
  N      187.709     358.862      33.560
  C      187.957     358.030      32.519
  C      189.147     357.810      31.860
  C      190.298     358.584      32.278
  O      191.418     358.544      31.777
  N      189.011     356.865      30.881
  C      187.734     356.533      30.911
  N      187.048     357.245      31.863
  O      186.420     355.243      27.885
  O      184.129     354.453      27.092
  H      185.866     360.053      31.498
  H      186.624     354.356      27.534
  H      190.779     359.984      33.658
  H      187.259     355.819      30.257
  H      185.411     357.440      33.112
  H      185.362     358.403      30.182
  H      189.417     361.026      35.247
  H      182.955     358.252      30.297
  H      187.754     360.564      35.375
  H      182.964     355.836      31.767
  H      183.912     354.680      29.745
  H      182.538     355.736      29.381
  P      182.182     359.673      32.381
  C      180.226     360.665      30.982
  O      181.285     359.733      31.058
  O      183.395     360.667      32.067
  O      181.485     360.009      33.658
  H      183.208     361.554      32.431
  H      180.432     361.374      30.175
  H      180.091     361.223      31.918
  H      179.298     360.131      30.759
  H      185.923     358.524      25.754
  H      186.843     357.658      26.960
  H      185.348     358.446      27.401

 3  4  5  6  7  8  9  10  11  12  23  26  30  31 0
 6-311+G(2d,p)
 ****
 33  35  36  37  38 0
 6-311+G(2d,p)
 ****
 1  2  13  14  15  16  17  18  19  20  21  22  24  25 0
 3-21G
 ****
 27  28  29  32  34  39  40  41  42  43  44  45  46  47  48  49 0
 3-21G
 ****


