%nproc=1
%NoSave
%Mem=1900MB
#P OB98/GEN NMR

erre ene a

0 1
  C      235.244     276.044     158.574
  O      236.057     276.763     157.642
  P      235.290     277.696     156.585
  C      236.697     279.652     155.611
  O      236.370     278.270     155.550
  C      238.160     279.869     155.232
  O      239.054     279.222     156.162
  C      238.520     279.293     153.867
  O      238.018     280.110     152.820
  C      240.042     279.252     153.967
  O      240.595     280.556     153.728
  C      240.256     278.857     155.436
  N      243.700     275.418     157.017
  C      243.733     276.771     156.954
  N      242.775     277.614     156.518
  C      241.684     276.932     156.129
  C      241.502     275.559     156.136
  C      242.574     274.786     156.606
  N      242.548     273.410     156.653
  N      240.250     275.230     155.659
  C      239.696     276.386     155.345
  N      240.519     277.442     155.622
  O      234.876     278.973     157.455
  O      234.099     277.042     155.964
  H      241.570     280.465     153.732
  H      233.915     278.975     157.611
  H      244.652     277.233     157.300
  H      238.707     276.504     154.918
  H      241.090     279.401     155.896
  H      240.499     278.563     153.249
  H      238.121     278.274     153.767
  H      238.360     280.947     155.247
  H      236.516     280.038     156.619
  H      243.390     272.929     156.931
  H      241.751     272.921     156.269
  H      236.027     280.203     154.940
  P      236.945     279.464     151.819
  C      235.881     281.714     151.189
  O      236.681     280.631     150.746
  O      235.619     279.488     152.703
  O      237.331     278.139     151.253
  H      235.502     280.346     153.158
  H      235.808     282.447     150.380
  H      236.337     282.192     152.059
  H      234.876     281.360     151.436
  H      235.870     275.463     159.219
  H      234.580     275.395     158.042
  H      234.674     276.736     159.158

 3  4  5  6  7  8  9  10  11  12  22  25  29  30  31  32 0
 6-311+G(2d,p)
 ****
 33  36  37 0
 6-311+G(2d,p)
 ****
 1  2  13  14  15  16  17  18  19  20  21  23  24  26 0
 3-21G
 ****
 27  28  34  35  38  39  40  41  42  43  44  45  46  47  48 0
 3-21G
 ****


