%nproc=1
%NoSave
%Mem=1900MB
#P OB98/GEN NMR

erre ene a

0 1
  C     -193.206    -448.681    -129.696
  O     -194.351    -448.729    -128.855
  P     -194.136    -448.687    -127.268
  C     -193.649    -450.529    -125.458
  O     -193.703    -450.167    -126.827
  C     -192.544    -451.570    -125.230
  O     -192.964    -452.838    -125.810
  C     -191.184    -451.206    -125.848
  O     -190.172    -451.709    -124.967
  C     -191.190    -451.984    -127.151
  O     -189.883    -452.206    -127.659
  C     -191.926    -453.262    -126.720
  N     -192.501    -454.009    -127.841
  C     -191.724    -455.015    -128.418
  O     -190.578    -455.290    -128.054
  N     -192.300    -455.682    -129.466
  C     -193.520    -455.413    -130.023
  O     -193.978    -456.037    -130.970
  C     -194.275    -454.314    -129.404
  C     -193.744    -453.680    -128.353
  O     -195.645    -448.550    -126.756
  O     -193.216    -447.601    -126.813
  H     -196.279    -449.042    -127.304
  H     -189.553    -451.363    -128.024
  H     -191.769    -456.441    -129.880
  H     -195.235    -454.060    -129.828
  H     -194.276    -452.863    -127.877
  H     -191.245    -453.913    -126.153
  H     -191.762    -451.431    -127.907
  H     -191.062    -450.128    -125.985
  H     -192.444    -451.730    -124.144
  H     -194.611    -450.957    -125.156
  H     -193.472    -449.636    -124.857
  P     -188.788    -450.887    -124.858
  C     -186.588    -450.839    -126.282
  O     -187.959    -451.160    -126.203
  O     -188.013    -451.779    -123.771
  O     -188.937    -449.459    -124.433
  H     -188.042    -452.727    -123.971
  H     -186.142    -451.396    -127.116
  H     -186.058    -451.100    -125.361
  H     -186.475    -449.765    -126.477
  H     -193.514    -448.718    -130.720
  H     -192.572    -449.517    -129.484
  H     -192.670    -447.773    -129.517

 3  4  5  6  7  8  9  10  11  12  13  24  28  29  30  31  32 0
 6-311+G(2d,p)
 ****
 33  34 0
 6-311+G(2d,p)
 ****
 1  2  14  15  16  17  18  19  20  21  22  23  25  26  27 0
 3-21G
 ****
 35  36  37  38  39  40  41  42  43  44  45 0
 3-21G
 ****


