%nproc=1
%NoSave
%Mem=1900MB
#P OB98/GEN NMR

erre ene a

0 1
  C       39.925     -40.307    -165.683
  O       39.226     -41.434    -165.189
  H       40.965     -40.343    -165.354
  H       39.897     -40.329    -166.775
  H       39.455     -39.382    -165.337
  P       38.995     -41.502    -163.604
  C       41.066     -42.975    -163.060
  O       40.453     -41.699    -162.957
  C       42.004     -43.214    -161.875
  O       42.730     -44.453    -162.095
  C       43.036     -42.099    -161.679
  O       43.218     -41.879    -160.278
  C       44.305     -42.681    -162.279
  O       45.479     -42.095    -161.732
  C       44.135     -44.164    -161.963
  N       47.830     -47.679    -162.220
  C       47.201     -47.105    -161.172
  N       46.220     -46.178    -161.190
  C       45.866     -45.889    -162.455
  C       46.416     -46.390    -163.623
  C       47.455     -47.324    -163.473
  N       48.127     -47.886    -164.533
  N       45.809     -45.822    -164.726
  C       44.909     -44.994    -164.232
  N       44.910     -44.997    -162.866
  O       38.306     -42.940    -163.421
  O       38.169     -40.408    -163.020
  H       45.440     -42.181    -160.756
  H       37.359     -42.876    -163.647
  H       47.533     -47.428    -160.190
  H       44.245     -44.369    -164.814
  H       44.447     -44.413    -160.941
  H       44.312     -42.511    -163.363
  H       42.745     -41.163    -162.160
  H       41.398     -43.357    -160.973
  H       41.638     -43.021    -163.993
  H       48.898     -48.502    -164.335
  H       47.903     -47.586    -165.472
  H       40.290     -43.748    -163.078
  P       43.013     -40.376    -159.751
  C       45.475     -39.596    -159.973
  O       44.134     -39.441    -160.417
  O       43.449     -40.459    -158.214
  O       41.610     -39.880    -159.892
  H       42.768     -40.052    -157.650
  H       46.107     -38.913    -160.501
  H       45.799     -40.598    -160.160
  H       45.529     -39.394    -158.924

 6  7  8  9  10  11  12  13  14  15  25  28  32  33  34  35 0
 6-311+G(2d,p)
 ****
 36  39  40 0
 6-311+G(2d,p)
 ****
 1  2  3  4  5  16  17  18  19  20  21  22  23  24 0
 3-21G
 ****
 26  27  29  30  31  37  38  41  42  43  44  45  46  47 0
 3-21G
 ****
 48 0
 3-21G
 ****


