%nproc=1
%NoSave
%Mem=1900MB
#P OB98/GEN NMR

erre ene a

0 1
  C      108.503       2.563     -30.936
  O      108.182       3.947     -30.828
  P      108.429       4.658     -29.413
  C      109.573       6.803     -30.401
  O      108.505       6.238     -29.662
  C      109.340       8.302     -30.658
  O      108.246       8.439     -31.606
  C      108.920       9.117     -29.438
  O      109.149      10.504     -29.711
  C      107.429       8.852     -29.387
  O      106.750       9.820     -28.590
  C      107.045       8.827     -30.886
  N      105.942       7.895     -31.199
  C      104.633       8.324     -30.990
  O      104.333       9.437     -30.556
  N      103.648       7.410     -31.262
  C      103.837       6.151     -31.749
  O      102.924       5.344     -31.891
  C      105.224       5.799     -32.083
  C      106.196       6.667     -31.788
  O      109.934       4.244     -29.048
  O      107.461       4.247     -28.354
  H      106.693      10.640     -29.139
  H      109.933       3.563     -28.347
  H      102.698       7.684     -31.049
  H      105.405       4.833     -32.537
  H      107.230       6.412     -32.012
  H      106.739       9.821     -31.231
  H      107.244       7.871     -28.938
  H      109.418       8.832     -28.508
  H      110.233       8.731     -31.121
  H      109.697       6.266     -31.345
  H      110.512       6.672     -29.846
  P      109.718      11.420     -28.527
  C      111.325      12.628     -30.130
  O      110.250      12.765     -29.219
  O      110.667      10.756     -27.586
  O      108.385      11.914     -27.780
  H      108.608      12.225     -26.886
  H      111.255      13.422     -30.878
  H      111.297      11.659     -30.638
  H      112.272      12.726     -29.591
  H      108.289       2.224     -31.928
  H      107.918       2.005     -30.234
  H      109.543       2.421     -30.727

 3  4  5  6  7  8  9  10  11  12  13  23  28  29  30  31  32 0
 6-311+G(2d,p)
 ****
 33  34 0
 6-311+G(2d,p)
 ****
 1  2  14  15  16  17  18  19  20  21  22  24  25  26  27 0
 3-21G
 ****
 35  36  37  38  39  40  41  42  43  44  45 0
 3-21G
 ****


