%nproc=1
%NoSave
%Mem=1900MB
#P OB98/GEN NMR

erre ene a

0 1
  C      635.809      58.852     -76.226
  O      634.797      59.322     -77.084
  P      633.292      58.794     -76.940
  C      632.589      57.465     -79.034
  O      633.224      57.408     -77.759
  C      633.464      58.238     -80.022
  O      634.856      57.883     -79.869
  C      633.158      57.945     -81.486
  O      631.895      58.349     -81.975
  C      634.388      58.514     -82.168
  O      634.282      59.928     -82.326
  C      635.500      58.167     -81.142
  N      636.328      57.052     -81.594
  C      637.316      57.361     -82.528
  O      637.500      58.501     -82.963
  N      638.067      56.309     -82.975
  C      637.904      54.997     -82.627
  O      638.590      54.105     -83.100
  C      636.838      54.725     -81.651
  C      636.112      55.748     -81.189
  O      632.227      59.783     -77.307
  O      633.220      58.291     -75.424
  H      633.559      60.105     -82.962
  H      633.854      57.584     -75.195
  H      638.777      56.512     -83.658
  H      636.691      53.700     -81.340
  H      635.312      55.578     -80.470
  H      636.150      59.033     -80.978
  H      634.541      58.088     -83.167
  H      633.188      56.849     -81.626
  H      633.367      59.301     -79.801
  H      631.623      57.976     -78.935
  H      632.394      56.441     -79.385
  P      631.123      57.582     -83.157
  C      631.153      58.505     -85.588
  O      631.883      57.892     -84.539
  O      629.636      57.675     -83.154
  O      631.555      56.053     -82.887
  H      630.831      55.464     -83.175
  H      631.810      58.598     -86.458
  H      630.825      59.501     -85.288
  H      630.294      57.890     -85.866
  H      636.737      59.320     -76.479
  H      635.903      57.792     -76.333
  H      635.556      59.087     -75.213

 3  4  5  6  7  8  9  10  11  12  13  23  28  29  30  31  32 0
 6-311+G(2d,p)
 ****
 33  34 0
 6-311+G(2d,p)
 ****
 1  2  14  15  16  17  18  19  20  21  22  24  25  26  27 0
 3-21G
 ****
 35  36  37  38  39  40  41  42  43  44  45 0
 3-21G
 ****


