%nproc=1
%NoSave
%Mem=1900MB
#P OB98/GEN NMR

erre ene a

0 1
  C      415.704       0.695     109.044
  O      415.204      -0.274     109.942
  H      416.326       0.196     108.298
  H      416.321       1.413     109.594
  H      414.890       1.217     108.536
  P      413.964       0.151     110.869
  C      411.543       1.005     110.443
  O      412.730       0.450     109.882
  C      410.665       1.598     109.340
  O      411.404       2.675     108.683
  C      410.240       0.592     108.259
  O      408.905       0.892     107.839
  C      411.186       0.915     107.113
  O      410.668       0.505     105.845
  C      411.309       2.428     107.266
  N      412.853       3.900     102.716
  C      411.582       3.614     103.190
  N      410.567       3.673     102.294
  N      411.326       3.299     104.430
  C      412.427       3.300     105.223
  C      413.731       3.555     104.878
  C      414.009       3.889     103.496
  O      415.109       4.131     103.015
  N      414.571       3.389     105.958
  C      413.770       3.014     106.948
  N      412.463       2.941     106.546
  O      414.396       1.606     111.387
  O      413.664      -0.774     112.002
  H      410.615      -0.470     105.845
  H      414.832       1.530     112.257
  H      412.997       4.123     101.745
  H      414.084       2.767     107.953
  H      410.427       2.963     106.885
  H      412.154       0.425     107.270
  H      410.683       3.942     101.328
  H      410.309      -0.460     108.576
  H      409.627       3.509     102.633
  H      409.784       2.052     109.812
  H      411.815       1.793     111.153
  H      411.006       0.217     110.985
  P      407.691       0.170     108.603
  C      405.991       0.765     110.482
  O      407.075       1.192     109.670
  O      408.439      -0.912     109.517
  O      406.705      -0.476     107.684
  H      407.885      -1.713     109.599
  H      405.700       1.561     111.136
  H      406.292      -0.082     111.063
  H      405.164       0.494     109.859

 6  7  8  9  10  11  12  13  14  15  26  29  33  34 0
 6-311+G(2d,p)
 ****
 36  38  39  40  41 0
 6-311+G(2d,p)
 ****
 1  2  3  4  5  16  17  18  19  20  21  22  23  24  25 0
 3-21G
 ****
 27  28  30  31  32  35  37  42  43  44  45  46  47 0
 3-21G
 ****
 48  49 0
 3-21G
 ****


