%nproc=1
%NoSave
%Mem=1900MB
#P OB98/GEN NMR

erre ene a

0 1
  C       55.597     394.656      99.298
  O       55.371     394.614      97.905
  H       55.262     393.710      99.735
  H       55.016     395.470      99.745
  H       56.653     394.786      99.529
  P       56.031     395.740      96.985
  C       54.763     396.395      94.834
  O       55.565     395.426      95.476
  C       53.788     395.747      93.850
  O       54.547     395.230      92.711
  C       52.992     394.579      94.440
  O       51.714     394.544      93.782
  C       53.832     393.391      94.025
  O       53.109     392.177      94.108
  C       54.262     393.823      92.623
  N       55.416     393.062      92.126
  C       55.130     391.952      91.334
  O       53.993     391.577      91.064
  N       56.214     391.247      90.888
  C       57.520     391.495      91.198
  O       58.452     390.811      90.796
  C       57.755     392.660      92.078
  C       56.709     393.372      92.492
  O       57.499     395.944      97.153
  O       55.211     397.073      97.328
  H       52.773     392.045      95.017
  H       55.775     397.858      97.217
  H       56.034     390.448      90.300
  H       58.779     392.878      92.358
  H       56.851     394.234      93.144
  H       53.447     393.685      91.899
  H       54.704     393.291      94.677
  H       52.853     394.653      95.522
  H       53.114     396.522      93.451
  H       55.433     397.093      94.298
  H       54.203     396.969      95.587
  P       50.368     395.046      94.486
  C       48.720     393.159      93.881
  O       49.114     394.509      93.647
  O       50.335     396.511      94.777
  O       50.283     394.195      95.856
  H       49.804     394.703      96.523
  H       47.878     392.922      93.265
  H       48.455     393.038      94.911
  H       49.532     392.504      93.643

 6  7  8  9  10  11  12  13  14  15  16  26  31  32  33  34  35 0
 6-311+G(2d,p)
 ****
 36  37 0
 6-311+G(2d,p)
 ****
 1  2  3  4  5  17  18  19  20  21  22  23  24  25 0
 3-21G
 ****
 27  28  29  30  38  39  40  41  42  43  44  45 0
 3-21G
 ****


