%nproc=1
%NoSave
%Mem=1900MB
#P OB98/GEN NMR

erre ene a

0 1
  C     -103.171     303.972     210.354
  O     -102.122     304.875     210.627
  H     -103.347     303.951     209.275
  H     -104.089     304.303     210.849
  H     -102.911     302.963     210.687
  P     -101.585     304.949     212.137
  C      -99.407     305.830     211.027
  O     -100.306     305.923     212.123
  C      -98.574     307.105     210.910
  O      -99.397     308.150     210.330
  C      -98.045     307.617     212.253
  O      -96.725     308.135     212.054
  C      -98.985     308.755     212.602
  O      -98.387     309.716     213.472
  C      -99.354     309.290     211.212
  N     -100.628     310.006     211.234
  C     -100.632     311.263     211.841
  O      -99.593     311.718     212.332
  N     -101.809     311.955     211.931
  C     -102.912     311.403     211.531
  N     -104.053     312.127     211.672
  C     -102.970     310.049     210.943
  C     -101.800     309.415     210.820
  O     -100.940     303.504     212.373
  O     -102.610     305.289     213.165
  H      -99.043     310.425     213.645
  H     -101.026     303.226     213.305
  H     -103.913     309.619     210.647
  H     -101.746     308.418     210.410
  H      -98.576     309.969     210.839
  H      -99.876     308.354     213.103
  H      -98.021     306.848     213.031
  H      -97.751     306.922     210.210
  H     -103.976     313.046     212.094
  H      -99.985     305.696     210.104
  H     -104.972     311.782     211.437
  H      -98.758     304.957     211.162
  P      -95.534     307.059     211.962
  C      -94.275     308.251     210.026
  O      -94.241     307.797     211.373
  O      -96.003     306.096     210.773
  O      -95.313     306.303     213.230
  H      -96.274     305.231     211.130
  H      -93.344     308.719     209.784
  H      -95.071     308.957     209.907
  H      -94.436     307.419     209.373

 6  7  8  9  10  11  12  13  14  15  16  26  30  31  32  33  35 0
 6-311+G(2d,p)
 ****
 37  38 0
 6-311+G(2d,p)
 ****
 1  2  3  4  5  17  18  19  20  21  22  23  24  25 0
 3-21G
 ****
 27  28  29  34  36  39  40  41  42  43  44  45  46 0
 3-21G
 ****


