%nproc=1
%NoSave
%Mem=1900MB
#P OB98/GEN NMR

erre ene a

0 1
  C     -715.262    -377.130     483.414
  O     -714.548    -377.219     482.200
  H     -716.171    -376.542     483.246
  H     -714.650    -376.627     484.175
  H     -715.549    -378.122     483.782
  P     -713.355    -378.286     482.090
  C     -713.483    -378.739     479.540
  O     -712.748    -378.145     480.603
  C     -713.188    -378.026     478.212
  O     -713.201    -376.586     478.436
  C     -711.784    -378.382     477.689
  O     -711.700    -378.297     476.265
  C     -710.914    -377.284     478.303
  O     -709.697    -377.073     477.577
  C     -711.867    -376.092     478.272
  N     -708.764    -372.369     479.867
  C     -708.579    -373.260     478.845
  N     -707.417    -373.155     478.139
  N     -709.447    -374.206     478.535
  C     -710.524    -374.231     479.367
  C     -710.807    -373.408     480.421
  C     -709.858    -372.349     480.731
  O     -709.965    -371.540     481.644
  N     -711.995    -373.752     481.024
  C     -712.433    -374.788     480.346
  N     -711.579    -375.104     479.299
  O     -714.116    -379.696     482.018
  O     -712.348    -378.257     483.195
  H     -709.889    -376.448     476.850
  H     -713.517    -380.408     482.286
  H     -708.086    -371.644     480.038
  H     -713.339    -375.330     480.536
  H     -711.814    -375.582     477.307
  H     -710.644    -377.598     479.311
  H     -706.657    -372.592     478.474
  H     -711.452    -379.368     478.007
  H     -707.136    -373.983     477.620
  H     -713.968    -378.248     477.486
  H     -714.542    -378.646     479.796
  H     -713.250    -379.797     479.466
  P     -711.891    -379.635     475.414
  C     -713.909    -379.022     473.774
  O     -712.523    -379.278     473.975
  O     -713.066    -380.403     476.164
  O     -710.652    -380.460     475.299
  H     -712.742    -381.232     476.546
  H     -714.086    -378.810     472.740
  H     -714.206    -378.182     474.367
  H     -714.476    -379.882     474.064

 6  7  8  9  10  11  12  13  14  15  26  29  33  34 0
 6-311+G(2d,p)
 ****
 36  38  39  40  41 0
 6-311+G(2d,p)
 ****
 1  2  3  4  5  16  17  18  19  20  21  22  23  24  25 0
 3-21G
 ****
 27  28  30  31  32  35  37  42  43  44  45  46  47 0
 3-21G
 ****
 48  49 0
 3-21G
 ****


