%nproc=1
%NoSave
%Mem=1900MB
#P OB98/GEN NMR

erre ene a

0 1
  C      -57.335     176.851    -189.380
  O      -58.714     176.923    -189.663
  H      -57.162     177.285    -188.390
  H      -56.759     177.421    -190.112
  H      -57.002     175.810    -189.368
  P      -59.228     176.530    -191.134
  C      -60.964     174.709    -190.631
  O      -60.765     176.086    -190.928
  C      -60.795     174.428    -189.138
  O      -61.699     175.272    -188.378
  C      -61.080     172.974    -188.744
  O      -60.042     172.502    -187.882
  C      -62.398     173.057    -187.989
  O      -62.572     171.967    -187.089
  C      -62.286     174.447    -187.354
  N      -63.569     174.974    -186.905
  C      -63.912     174.732    -185.571
  O      -63.162     174.072    -184.849
  N      -65.107     175.206    -185.097
  C      -65.918     175.823    -185.897
  N      -67.093     176.260    -185.368
  C      -65.619     176.060    -187.324
  C      -64.437     175.619    -187.755
  O      -58.378     175.534    -191.847
  O      -59.358     177.928    -191.901
  H      -63.372     172.138    -186.544
  H      -59.358     177.767    -192.877
  H      -66.332     176.569    -187.955
  H      -64.129     175.757    -188.786
  H      -61.600     174.429    -186.496
  H      -63.230     173.042    -188.704
  H      -61.151     172.303    -189.597
  H      -59.781     174.727    -188.844
  H      -67.257     176.080    -184.386
  H      -60.248     174.118    -191.213
  H      -67.800     176.746    -185.898
  H      -61.982     174.438    -190.931
  P      -58.732     171.921    -188.606
  C      -57.141     172.010    -186.564
  O      -57.835     171.191    -187.492
  O      -57.900     173.240    -188.966
  O      -59.031     171.104    -189.820
  H      -58.023     173.470    -189.905
  H      -56.589     171.393    -185.887
  H      -57.844     172.602    -186.015
  H      -56.467     172.653    -187.090

 6  7  8  9  10  11  12  13  14  15  16  26  30  31  32  33  35 0
 6-311+G(2d,p)
 ****
 37  38 0
 6-311+G(2d,p)
 ****
 1  2  3  4  5  17  18  19  20  21  22  23  24  25 0
 3-21G
 ****
 27  28  29  34  36  39  40  41  42  43  44  45  46 0
 3-21G
 ****


