%nproc=1
%NoSave
%Mem=1900MB
#P OB98/GEN NMR

erre ene a

0 1
  C      124.974     -50.690      84.791
  O      126.093     -51.526      84.999
  H      124.080     -51.210      85.146
  H      124.848     -50.468      83.728
  H      125.083     -49.761      85.357
  P      127.521     -51.036      84.451
  C      128.196     -50.246      86.824
  O      127.959     -49.875      85.475
  C      129.519     -49.656      87.309
  O      129.744     -49.963      88.701
  C      130.757     -50.183      86.591
  O      130.913     -49.664      85.280
  C      131.839     -49.698      87.541
  O      132.046     -48.287      87.356
  C      131.183     -49.986      88.915
  N      131.594     -51.266      89.486
  C      132.968     -51.455      89.680
  O      133.770     -50.573      89.376
  N      133.408     -52.657      90.180
  C      132.553     -53.595      90.444
  N      133.046     -54.784      90.892
  C      131.098     -53.434      90.272
  C      130.691     -52.262      89.790
  O      127.583     -50.669      83.004
  O      128.526     -52.215      84.853
  H      131.290     -47.831      87.769
  H      129.424     -51.965      84.525
  H      130.429     -54.251      90.500
  H      129.637     -52.073      89.620
  H      131.415     -49.189      89.630
  H      132.802     -50.192      87.387
  H      130.766     -51.278      86.581
  H      129.442     -48.563      87.230
  H      134.051     -54.872      90.957
  H      128.210     -51.339      86.881
  H      132.491     -55.632      90.853
  H      127.394     -49.867      87.465
  P      131.992     -50.366      84.319
  C      130.288     -51.870      83.045
  O      131.394     -51.803      83.929
  O      133.189     -50.712      85.320
  O      132.440     -49.552      83.146
  H      133.864     -50.004      85.319
  H      130.016     -52.893      82.891
  H      130.553     -51.426      82.108
  H      129.460     -51.341      83.469

 6  7  8  9  10  11  12  13  14  15  16  26  30  31  32  33  35 0
 6-311+G(2d,p)
 ****
 37  38 0
 6-311+G(2d,p)
 ****
 1  2  3  4  5  17  18  19  20  21  22  23  24  25 0
 3-21G
 ****
 27  28  29  34  36  39  40  41  42  43  44  45  46 0
 3-21G
 ****


