%nproc=1
%NoSave
%Mem=1900MB
#P OB98/GEN NMR

erre ene a

0 1
  C       81.011     214.362    -562.978
  O       80.337     213.704    -564.053
  P       80.748     214.121    -565.546
  C       81.371     211.723    -566.350
  O       81.806     213.056    -566.101
  C       82.572     210.776    -566.389
  O       83.140     210.596    -565.080
  C       82.212     209.374    -566.861
  O       82.069     209.345    -568.269
  C       83.387     208.557    -566.343
  O       84.453     208.493    -567.308
  C       83.832     209.338    -565.088
  N       83.597     208.594    -563.853
  C       84.453     207.519    -563.616
  O       85.331     207.227    -564.435
  N       84.279     206.790    -562.472
  C       83.322     207.088    -561.650
  N       83.193     206.319    -560.536
  C       82.379     208.200    -561.882
  C       82.573     208.908    -562.997
  O       81.626     215.441    -565.332
  O       79.579     214.379    -566.444
  H       84.186     207.796    -567.945
  H       81.511     216.053    -566.080
  H       81.589     208.407    -561.175
  H       81.926     209.744    -563.244
  H       84.906     209.571    -565.140
  H       83.091     207.522    -566.131
  H       81.285     209.042    -566.374
  H       83.335     211.210    -567.052
  H       83.858     205.563    -560.411
  H       80.826     211.674    -567.292
  H       82.481     206.460    -559.839
  H       80.664     211.429    -565.565
  P       80.588     209.466    -568.866
  C       81.291     211.749    -569.810
  O       80.338     211.042    -569.039
  O       79.679     209.126    -567.595
  O       80.251     208.608    -570.038
  H       78.743     209.068    -567.854
  H       80.897     212.747    -570.019
  H       81.479     211.241    -570.758
  H       82.220     211.853    -569.246
  H       80.642     213.990    -562.045
  H       80.834     215.416    -563.038
  H       82.062     214.173    -563.047

 3  4  5  6  7  8  9  10  11  12  13  21  23  27  28  29  30  32 0
 6-311+G(2d,p)
 ****
 34  35 0
 6-311+G(2d,p)
 ****
 1  2  14  15  16  17  18  19  20  22  24  25  26 0
 3-21G
 ****
 31  33  36  37  38  39  40  41  42  43  44  45  46 0
 3-21G
 ****


