%nproc=1
%NoSave
%Mem=1900MB
#P OB98/GEN NMR

erre ene a

0 1
  C     1019.311     948.161    -467.563
  O     1020.202     947.117    -467.894
  H     1018.476     948.152    -468.273
  H     1019.823     949.126    -467.639
  H     1018.924     948.022    -466.554
  P     1021.478     946.938    -466.945
  C     1021.333     944.481    -466.071
  O     1021.885     945.383    -467.029
  C     1019.844     944.237    -466.370
  O     1019.724     943.679    -467.711
  C     1019.179     943.243    -465.390
  O     1017.792     943.602    -465.263
  C     1019.304     941.939    -466.162
  O     1018.419     940.971    -465.626
  C     1018.990     942.446    -467.573
  N     1017.380     938.545    -470.467
  C     1016.743     939.367    -469.587
  N     1017.235     940.373    -468.867
  C     1018.541     940.556    -469.134
  C     1019.327     939.830    -470.007
  C     1018.701     938.780    -470.688
  N     1019.362     937.937    -471.576
  N     1020.627     940.300    -469.998
  C     1020.628     941.315    -469.145
  N     1019.376     941.502    -468.600
  O     1020.868     947.098    -465.477
  O     1022.606     947.887    -467.193
  H     1018.580     940.844    -464.671
  H     1020.935     948.018    -465.181
  H     1015.676     939.143    -469.450
  H     1021.473     941.918    -468.873
  H     1017.923     942.667    -467.714
  H     1020.310     941.534    -466.099
  H     1019.645     943.226    -464.415
  H     1019.320     945.211    -466.379
  H     1021.447     944.911    -465.065
  H     1021.877     943.531    -466.129
  H     1018.839     937.200    -471.999
  H     1020.363     938.071    -471.715
  P     1017.243     944.108    -463.845
  C     1015.063     945.257    -464.727
  O     1015.641     944.264    -463.889
  O     1017.736     945.631    -463.808
  O     1017.790     943.357    -462.659
  H     1018.133     945.824    -462.957
  H     1013.997     945.224    -464.636
  H     1015.340     945.071    -465.744
  H     1015.416     946.223    -464.432

 6  7  8  9  10  11  12  13  14  15  25  28  32  33  34  35 0
 6-311+G(2d,p)
 ****
 36  37  40 0
 6-311+G(2d,p)
 ****
 1  2  3  4  5  16  17  18  19  20  21  22  23  24 0
 3-21G
 ****
 26  27  29  30  31  38  39 41  42  43  44  45  46  47  48 0
 3-21G
 ****


