%nproc=1
%NoSave
%Mem=1900MB
#P OB98/GEN NMR

erre ene a

0 1
  C     -328.569     198.194     302.074
  O     -327.229     198.676     302.205
  P     -326.339     198.875     300.888
  C     -325.261     201.147     301.464
  O     -325.048     199.758     301.250
  C     -324.002     201.823     302.022
  O     -323.919     201.607     303.466
  C     -322.698     201.283     301.404
  O     -321.835     202.317     300.921
  C     -322.118     200.393     302.489
  O     -320.720     200.211     302.368
  C     -322.626     201.061     303.777
  N     -322.669     200.118     304.908
  C     -321.454     199.747     305.457
  O     -320.365     200.096     305.002
  N     -321.516     198.891     306.522
  C     -322.654     198.326     307.032
  O     -322.653     197.522     307.953
  C     -323.911     198.707     306.358
  C     -323.857     199.579     305.347
  O     -327.074     199.318     299.663
  O     -325.699     197.413     300.659
  H     -320.302     201.089     302.218
  H     -325.679     197.242     299.699
  H     -320.641     198.619     306.951
  H     -324.827     198.260     306.721
  H     -324.765     199.870     304.833
  H     -321.968     201.880     304.077
  H     -322.580     199.401     302.406
  H     -322.908     200.678     300.508
  H     -324.091     202.899     301.847
  H     -326.079     201.290     302.174
  H     -325.581     201.612     300.530
  P     -321.372     202.481     299.405
  C     -321.502     205.068     299.527
  O     -320.717     203.927     299.223
  O     -322.397     202.120     298.364
  O     -320.119     201.499     299.301
  H     -320.139     201.029     298.445
  H     -321.085     205.936     299.023
  H     -321.481     205.244     300.613
  H     -322.550     204.937     299.203
  H     -329.018     198.120     303.043
  H     -328.557     197.229     301.612
  H     -329.135     198.872     301.470

 3  4  5  6  7  8  9  10  11  12  13  23  28  29  30  31  32 0
 6-311+G(2d,p)
 ****
 33  34 0
 6-311+G(2d,p)
 ****
 1  2  14  15  16  17  18  19  20  21  22  24  25  26  27 0
 3-21G
 ****
 35  36  37  38  39  40  41  42  43  44  45 0
 3-21G
 ****


