%nproc=1
%NoSave
%Mem=1900MB
#P OB98/GEN NMR

erre ene a

0 1
  C      322.686      19.014     194.800
  O      323.433      18.458     193.720
  P      322.889      18.713     192.234
  C      325.042      19.830     191.240
  O      323.687      19.961     191.626
  C      325.504      21.053     190.426
  O      324.816      21.042     189.150
  C      325.184      22.408     191.046
  O      326.013      23.400     190.437
  C      323.748      22.615     190.613
  O      323.355      23.982     190.718
  C      323.749      22.026     189.186
  N      322.465      21.394     188.805
  C      321.405      22.220     188.439
  O      321.467      23.446     188.412
  N      320.230      21.588     188.133
  C      320.025      20.240     188.118
  O      318.928      19.731     187.922
  C      321.210      19.416     188.374
  C      322.353      20.017     188.708
  O      321.407      19.267     192.466
  O      322.902      17.493     191.372
  H      322.391      24.011     190.537
  H      320.751      18.579     192.248
  H      319.433      22.175     187.931
  H      321.105      18.339     188.304
  H      323.237      19.418     188.921
  H      323.963      22.800     188.436
  H      323.082      22.035     191.258
  H      325.292      22.447     192.136
  H      326.578      20.965     190.224
  H      325.175      18.915     190.659
  H      325.671      19.729     192.133
  P      327.387      23.784     191.172
  C      328.582      22.933     189.059
  O      328.532      22.906     190.473
  O      327.363      23.755     192.661
  O      327.688      25.260     190.612
  H      328.320      25.710     191.200
  H      329.614      22.775     188.739
  H      328.231      23.892     188.667
  H      327.957      22.131     188.663
  H      323.161      18.767     195.727
  H      321.693      18.614     194.790
  H      322.643      20.078     194.694

 3  4  5  6  7  8  9  10  11  12  13  23  28  29  30  31  32 0
 6-311+G(2d,p)
 ****
 33  34 0
 6-311+G(2d,p)
 ****
 1  2  14  15  16  17  18  19  20  21  22  24  25  26  27 0
 3-21G
 ****
 35  36  37  38  39  40  41  42  43  44  45 0
 3-21G
 ****


