%nproc=1
%NoSave
%Mem=1900MB
#P OB98/GEN NMR

erre ene a

0 1
  C     -791.333    -989.663    1207.830
  O     -791.607    -988.270    1207.840
  P     -792.560    -987.518    1208.869
  C     -793.780    -986.225    1206.896
  O     -793.132    -986.200    1208.170
  C     -794.102    -984.812    1206.402
  O     -794.681    -984.031    1207.473
  C     -792.846    -984.042    1205.928
  O     -793.031    -983.314    1204.730
  C     -792.432    -983.250    1207.165
  O     -791.596    -982.159    1206.900
  C     -793.817    -982.933    1207.773
  N     -792.057    -979.958    1211.564
  C     -791.725    -979.956    1210.216
  N     -790.805    -979.029    1209.829
  N     -792.259    -980.767    1209.328
  C     -793.092    -981.676    1209.884
  C     -793.480    -981.793    1211.193
  C     -792.952    -980.850    1212.143
  O     -793.190    -980.813    1213.361
  N     -794.371    -982.842    1211.359
  C     -794.498    -983.343    1210.162
  N     -793.741    -982.665    1209.214
  O     -792.047    -987.375    1210.253
  O     -793.884    -988.463    1208.929
  H     -791.287    -981.798    1207.770
  H     -794.242    -988.371    1209.835
  H     -791.658    -979.308    1212.195
  H     -795.134    -984.194    1209.905
  H     -794.247    -982.015    1207.360
  H     -791.880    -983.944    1207.831
  H     -790.279    -978.465    1210.466
  H     -792.033    -984.749    1205.662
  H     -790.412    -979.193    1208.886
  H     -794.849    -984.895    1205.576
  H     -794.715    -986.783    1207.054
  H     -793.156    -986.774    1206.177
  P     -792.855    -983.791    1203.205
  C     -790.716    -982.568    1202.522
  O     -792.167    -982.662    1202.352
  O     -794.373    -983.819    1202.606
  O     -792.229    -985.172    1203.055
  H     -794.600    -984.727    1202.353
  H     -790.393    -981.587    1202.095
  H     -790.254    -983.370    1201.935
  H     -790.424    -982.627    1203.568
  H     -790.660    -989.888    1207.029
  H     -792.245    -990.205    1207.693
  H     -790.887    -989.945    1208.761

 3  4  5  6  7  8  9  10  11  12  23  26  30  31 0
 6-311+G(2d,p)
 ****
 33  35  36  37  38 0
 6-311+G(2d,p)
 ****
 1  2  13  14  15  16  17  18  19  20  21  22  24  25 0
 3-21G
 ****
 27  28  29  32  34  39  40  41  42  43  44  45  46  47  48  49 0
 3-21G
 ****


