%nproc=1
%NoSave
%Mem=1900MB
#P OB98/GEN NMR

erre ene a

0 1
  C     -200.307      -5.269     -12.752
  O     -201.591      -5.353     -13.350
  P     -202.737      -6.264     -12.698
  C     -203.020      -4.538     -10.814
  O     -202.774      -5.902     -11.134
  C     -204.055      -4.425      -9.697
  O     -204.183      -3.034      -9.319
  C     -205.439      -4.919     -10.101
  O     -206.053      -5.550      -8.973
  C     -206.214      -3.652     -10.417
  O     -207.627      -3.845     -10.235
  C     -205.567      -2.654      -9.452
  N     -208.551       1.465     -10.137
  C     -208.801       0.257      -9.586
  N     -207.969      -0.799      -9.460
  C     -206.747      -0.495      -9.926
  C     -206.342       0.695     -10.511
  C     -207.309       1.709     -10.613
  N     -207.047       2.945     -11.165
  N     -205.017       0.623     -10.897
  C     -204.628      -0.578     -10.532
  N     -205.634      -1.288      -9.932
  O     -202.632      -7.719     -12.994
  O     -204.103      -5.643     -13.245
  H     -207.869      -4.662     -10.719
  H     -204.746      -6.353     -13.437
  H     -209.805       0.119      -9.197
  H     -203.641      -0.985     -10.687
  H     -206.028      -2.697      -8.458
  H     -206.044      -3.369     -11.462
  H     -205.414      -5.612     -10.949
  H     -203.687      -4.972      -8.821
  H     -203.402      -4.037     -11.709
  H     -207.764       3.649     -11.084
  H     -206.085       3.186     -11.359
  H     -202.081      -4.058     -10.522
  P     -207.057      -6.764      -9.307
  C     -205.181      -8.432      -8.619
  O     -206.101      -8.014      -9.601
  O     -208.047      -6.398     -10.363
  O     -207.690      -7.048      -7.863
  H     -207.089      -6.757      -7.142
  H     -204.597      -9.266      -9.018
  H     -205.711      -8.776      -7.727
  H     -204.501      -7.616      -8.358
  H     -199.686      -4.617     -13.330
  H     -199.866      -6.243     -12.717
  H     -200.401      -4.884     -11.758

 3  4  5  6  7  8  9  10  11  12  22  25  29  30  31  32 0
 6-311+G(2d,p)
 ****
 33  36  37 0
 6-311+G(2d,p)
 ****
 1  2  13  14  15  16  17  18  19  20  21  23  24  26 0
 3-21G
 ****
 27  28  34  35  38  39  40  41  42  43  44  45  46  47  48 0
 3-21G
 ****


