%nproc=1
%NoSave
%Mem=1900MB
#P OB98/GEN NMR

erre ene a

0 1
  C      680.773     -11.778     476.488
  O      681.877     -11.016     476.922
  H      680.071     -11.114     475.970
  H      680.260     -12.223     477.341
  H      681.086     -12.558     475.791
  P      683.131     -11.778     477.566
  C      681.803     -11.846     479.774
  O      682.588     -12.581     478.841
  C      681.898     -12.495     481.160
  O      681.730     -13.924     481.040
  C      683.240     -12.291     481.842
  O      683.370     -10.978     482.353
  C      683.196     -13.389     482.890
  O      682.444     -12.981     484.036
  C      682.468     -14.522     482.131
  N      683.397     -15.545     481.649
  C      683.212     -16.833     482.150
  O      682.324     -17.136     482.945
  N      684.130     -17.760     481.743
  C      685.257     -17.504     481.023
  O      686.176     -18.311     480.906
  C      685.366     -16.147     480.471
  C      684.443     -15.241     480.811
  O      684.338     -10.938     477.818
  O      683.440     -12.949     476.513
  H      684.209     -12.694     475.966
  H      682.879     -12.179     484.377
  H      684.023     -18.691     482.142
  H      686.218     -15.922     479.838
  H      684.523     -14.221     480.446
  H      681.726     -15.002     482.788
  H      684.197     -13.661     483.223
  H      684.052     -12.505     481.138
  H      681.077     -12.099     481.779
  H      680.760     -11.855     479.440
  H      682.157     -10.811     479.806
  P      684.676     -10.101     482.018
  C      685.811      -9.887     484.317
  O      685.838     -10.527     483.046
  O      684.442      -8.633     481.905
  O      685.196     -10.708     480.633
  H      685.352      -9.980     480.006
  H      686.624     -10.245     484.914
  H      684.885     -10.106     484.807
  H      685.903      -8.829     484.186

 6  7  8  9  10  11  12  13  14  15  16  27  31  32  33  34  35 0
 6-311+G(2d,p)
 ****
 36  37 0
 6-311+G(2d,p)
 ****
 1  2  3  4  5  17  18  19  20  21  22  23  24  25 0
 3-21G
 ****
 26  28  29  30  38  39  40  41  42  43  44  45 0
 3-21G
 ****


