%nproc=1
%NoSave
%Mem=1900MB
#P OB98/GEN NMR

erre ene a

0 1
  C      325.980     316.815     259.437
  O      327.383     316.997     259.177
  P      327.970     318.387     258.611
  C      327.545     319.999     256.644
  O      327.234     318.732     257.224
  C      327.139     320.056     255.158
  O      328.111     319.392     254.330
  C      325.803     319.385     254.846
  O      324.725     320.229     255.208
  C      325.941     319.127     253.348
  O      325.642     320.319     252.607
  C      327.430     318.778     253.228
  N      326.402     314.380     250.806
  C      326.030     315.660     250.557
  N      326.336     316.778     251.253
  C      327.143     316.480     252.293
  C      327.595     315.219     252.670
  C      327.193     314.137     251.878
  N      327.554     312.830     252.145
  N      328.375     315.310     253.803
  C      328.411     316.597     254.101
  N      327.679     317.341     253.211
  O      329.462     318.433     258.537
  O      327.409     319.500     259.617
  H      326.011     321.075     253.098
  H      328.029     320.260     259.638
  H      325.395     315.805     249.684
  H      328.952     317.038     254.936
  H      327.875     319.198     252.308
  H      325.268     318.344     252.990
  H      325.725     318.430     255.375
  H      327.114     321.110     254.863
  H      328.625     320.159     256.734
  H      327.196     312.107     251.542
  H      328.108     312.638     252.963
  H      327.018     320.772     257.205
  P      323.798     319.859     256.468
  C      322.153     317.994     257.093
  O      323.086     318.464     256.136
  O      322.884     320.944     256.936
  O      324.851     319.458     257.611
  H      324.480     319.663     258.484
  H      322.682     317.520     257.928
  H      321.507     317.251     256.616
  H      321.529     318.810     257.467
  H      325.811     315.825     259.805
  H      325.428     316.958     258.532
  H      325.657     317.527     260.168

 3  4  5  6  7  8  9  10  11  12  22  25  29  30  31  32 0
 6-311+G(2d,p)
 ****
 33  36  37 0
 6-311+G(2d,p)
 ****
 1  2  13  14  15  16  17  18  19  20  21  23  24  26 0
 3-21G
 ****
 27  28  34  35  38  39  40  41  42  43  44  45  46  47  48 0
 3-21G
 ****


