%nproc=1
%NoSave
%Mem=1900MB
#P OB98/GEN NMR

erre ene a

0 1
  C       40.271     140.762    -334.938
  O       40.657     142.017    -335.462
  H       39.350     140.862    -334.359
  H       40.091     140.074    -335.769
  H       41.066     140.354    -334.307
  P       40.980     143.177    -334.403
  C       42.847     144.392    -335.741
  O       42.521     143.562    -334.633
  C       44.363     144.493    -335.876
  O       44.952     143.174    -335.878
  C       44.835     145.157    -337.164
  O       44.784     146.571    -337.088
  C       46.268     144.659    -337.226
  O       47.081     145.407    -336.301
  C       46.117     143.209    -336.748
  N       48.044     139.088    -339.089
  C       48.484     139.819    -338.044
  N       47.914     140.905    -337.485
  C       46.774     141.223    -338.115
  C       46.205     140.577    -339.200
  C       46.889     139.452    -339.692
  N       46.453     138.713    -340.770
  N       45.046     141.216    -339.596
  C       44.903     142.209    -338.742
  N       45.926     142.261    -337.834
  O       41.005     142.407    -332.998
  O       40.040     144.336    -334.403
  H       48.009     145.258    -336.562
  H       40.870     143.041    -332.268
  H       49.419     139.488    -337.598
  H       44.081     142.913    -338.739
  H       46.976     142.866    -336.163
  H       46.720     144.771    -338.212
  H       44.286     144.780    -338.037
  H       44.747     145.028    -334.998
  H       42.430     145.390    -335.576
  H       47.105     138.047    -341.153
  H       45.678     139.068    -341.311
  H       42.410     143.966    -336.650
  P       43.442     147.289    -337.595
  C       43.458     148.597    -335.345
  O       42.705     147.822    -336.275
  O       42.529     146.065    -338.064
  O       43.642     148.298    -338.678
  H       41.889     146.346    -338.746
  H       42.832     148.876    -334.524
  H       43.825     149.478    -335.829
  H       44.283     148.019    -334.984

 6  7  8  9  10  11  12  13  14  15  25  28  32  33  34  35 0
 6-311+G(2d,p)
 ****
 36  39  40 0
 6-311+G(2d,p)
 ****
 1  2  3  4  5  16  17  18  19  20  21  22  23  24 0
 3-21G
 ****
 26  27  29  30  31  37  38  41  42  43  44  45  46  47 0
 3-21G
 ****
 48 0
 3-21G
 ****


