%nproc=1
%NoSave
%Mem=1900MB
#P OB98/GEN NMR

erre ene a

0 1
  C      154.385    -188.316     103.160
  O      155.634    -188.331     102.497
  P      155.701    -188.086     100.916
  C      156.336    -185.610     101.181
  O      155.395    -186.535     100.648
  C      157.189    -185.020     100.060
  O      156.372    -184.244      99.159
  C      158.280    -184.071     100.545
  O      159.366    -184.790     101.094
  C      158.598    -183.310      99.264
  O      159.495    -184.069      98.435
  C      157.215    -183.209      98.604
  N      157.887    -178.173      98.161
  C      158.742    -179.209      98.036
  N      158.495    -180.524      98.209
  C      157.215    -180.720      98.570
  C      156.236    -179.758      98.770
  C      156.607    -178.426      98.527
  N      155.731    -177.368      98.591
  N      155.052    -180.353      99.168
  C      155.319    -181.643      99.212
  N      156.589    -181.915      98.797
  O      154.907    -189.041     100.087
  O      157.260    -188.205     100.578
  H      160.372    -184.055      98.866
  H      157.401    -188.938      99.949
  H      159.758    -178.950      97.751
  H      154.622    -182.412      99.520
  H      157.264    -183.389      97.523
  H      159.072    -182.344      99.454
  H      157.866    -183.374     101.282
  H      157.625    -185.851      99.490
  H      156.974    -186.140     101.893
  H      156.061    -176.475      98.256
  H      154.732    -177.564      98.560
  H      155.802    -184.813     101.710
  P      159.750    -184.598     102.635
  C      158.957    -186.926     103.361
  O      158.761    -185.532     103.484
  O      159.853    -183.185     103.106
  O      161.156    -185.358     102.770
  H      161.699    -184.915     103.449
  H      158.527    -187.276     102.417
  H      158.450    -187.426     104.188
  H      160.022    -187.175     103.392
  H      154.533    -188.496     104.204
  H      153.755    -189.079     102.752
  H      153.921    -187.361     103.025

 3  4  5  6  7  8  9  10  11  12  22  25  29  30  31  32 0
 6-311+G(2d,p)
 ****
 33  36  37 0
 6-311+G(2d,p)
 ****
 1  2  13  14  15  16  17  18  19  20  21  23  24  26 0
 3-21G
 ****
 27  28  34  35  38  39  40  41  42  43  44  45  46  47  48 0
 3-21G
 ****


