%nproc=1
%NoSave
%Mem=1900MB
#P OB98/GEN NMR

erre ene a

0 1
  C       13.760    -896.350     873.649
  O       12.923    -895.260     873.912
  H       13.140    -897.230     873.438
  H       14.384    -896.570     874.516
  H       14.391    -896.160     872.775
  P       13.618    -893.820     874.092
  C       12.477    -892.870     871.950
  O       13.707    -893.160     872.615
  C       12.752    -892.510     870.491
  O       13.295    -893.680     869.805
  C       11.488    -892.070     869.720
  O       11.854    -891.010     868.832
  C       11.108    -893.300     868.914
  O       10.342    -892.990     867.751
  C       12.476    -893.930     868.648
  N       12.356    -895.360     868.384
  C       12.285    -895.760     867.028
  O       12.314    -894.910     866.144
  N       12.137    -897.090     866.728
  C       11.972    -897.950     867.692
  N       11.776    -899.240     867.330
  C       11.963    -897.570     869.119
  C       12.170    -896.290     869.395
  O       15.141    -894.170     874.410
  O       13.005    -892.930     875.127
  H        9.544    -892.480     868.040
  H       15.551    -893.510     874.996
  H       11.792    -898.320     869.886
  H       12.177    -895.920     870.415
  H       12.954    -893.460     867.793
  H       10.490    -893.970     869.544
  H       10.684    -891.730     870.386
  H       13.522    -891.730     870.454
  H       11.769    -899.470     866.339
  H       11.996    -892.010     872.436
  H       11.595    -900.000     867.991
  H       11.807    -893.740     872.019
  P       11.762    -889.510     869.398
  C       14.306    -888.950     869.390
  O       13.134    -889.180     870.160
  O       10.685    -889.640     870.577
  O       11.343    -888.500     868.370
  H        9.853    -889.210     870.329
  H       15.128    -888.745     870.044
  H       14.149    -888.113     868.742
  H       14.524    -889.819     868.804

 6  7  8  9  10  11  12  13  14  15  16  26  30  31  32  33  35 0
 6-311+G(2d,p)
 ****
 37  38 0
 6-311+G(2d,p)
 ****
 1  2  3  4  5  17  18  19  20  21  22  23  24  25 0
 3-21G
 ****
 27  28  29  34  36  39  40  41  42  43  44  45  46 0
 3-21G
 ****


