%nproc=1
%NoSave
%Mem=1900MB
#P OB98/GEN NMR

erre ene a

0 1
  C        1.720     295.766     595.750
  O        1.655     294.362     595.860
  H        2.514     296.026     595.044
  H        1.960     296.200     596.725
  H        0.778     296.184     595.389
  P        0.364     293.702     596.539
  C        0.115     292.138     598.584
  O        0.793     293.253     598.027
  C        0.438     291.976     600.066
  O        1.850     291.705     600.233
  C        0.151     293.286     600.831
  O       -0.190     293.056     602.190
  C        1.488     294.004     600.769
  O        1.631     294.998     601.782
  C        2.463     292.836     600.883
  N        6.448     296.002     600.547
  C        5.236     296.186     601.197
  N        5.055     297.376     601.821
  N        4.289     295.287     601.221
  C        4.576     294.177     600.495
  C        5.724     293.895     599.788
  C        6.788     294.883     599.809
  O        7.874     294.783     599.247
  N        5.647     292.669     599.160
  C        4.446     292.217     599.480
  N        3.762     293.092     600.299
  O        0.217     292.290     595.788
  O       -0.899     294.506     596.462
  H        1.619     294.540     602.645
  H       -0.710     291.982     595.821
  H        7.151     296.723     600.582
  H        4.032     291.276     599.153
  H        2.628     292.574     601.943
  H        1.560     294.521     599.797
  H        5.685     298.150     601.688
  H       -0.638     293.867     600.351
  H        4.089     297.636     602.042
  H       -0.099     291.125     600.493
  H        0.437     291.251     598.031
  H       -0.967     292.239     598.429
  P       -1.281     294.033     602.860
  C       -1.201     296.155     604.415
  O       -0.495     295.133     603.717
  O       -1.998     293.117     603.955
  O       -2.254     294.598     601.871
  H       -2.874     292.848     603.655
  H       -0.503     296.787     604.924
  H       -1.863     295.708     605.127
  H       -1.767     296.737     603.718

 6  7  8  9  10  11  12  13  14  15  26  29  33  34 0
 6-311+G(2d,p)
 ****
 36  38  39  40  41 0
 6-311+G(2d,p)
 ****
 1  2  3  4  5  16  17  18  19  20  21  22  23  24  25 0
 3-21G
 ****
 27  28  30  31  32  35  37  42  43  44  45  46  47 0
 3-21G
 ****
 48  49 0
 3-21G
 ****


