%nproc=1
%NoSave
%Mem=1900MB
#P OB98/GEN NMR

erre ene a

0 1
  C     -819.409    1106.840     125.835
  O     -818.651    1108.028     125.601
  P     -817.117    1107.897     125.138
  C     -817.612    1109.282     123.035
  O     -817.040    1108.085     123.548
  C     -817.321    1109.477     121.540
  O     -815.885    1109.547     121.301
  C     -817.870    1108.365     120.640
  O     -818.288    1108.988     119.413
  C     -816.662    1107.493     120.418
  O     -816.805    1106.641     119.288
  C     -815.562    1108.565     120.304
  N     -814.230    1108.013     120.500
  C     -813.542    1107.591     119.361
  O     -814.104    1107.597     118.269
  N     -812.242    1107.161     119.506
  C     -811.744    1107.009     120.691
  N     -810.452    1106.597     120.791
  C     -812.510    1107.274     121.926
  C     -813.721    1107.796     121.756
  O     -816.398    1106.699     125.668
  O     -816.461    1109.250     125.691
  H     -815.957    1106.165     119.136
  H     -815.540    1109.067     125.966
  H     -812.081    1107.061     122.899
  H     -814.357    1108.029     122.600
  H     -815.598    1109.056     119.333
  H     -816.493    1106.859     121.297
  H     -818.731    1107.835     121.070
  H     -817.743    1110.443     121.233
  H     -809.953    1106.395     119.935
  H     -817.220    1110.134     123.592
  H     -809.975    1106.503     121.678
  H     -818.695    1109.270     123.222
  P     -819.853    1109.089     119.078
  C     -819.884    1111.523     118.176
  O     -820.282    1110.623     119.188
  O     -820.503    1108.465     120.411
  O     -820.315    1108.330     117.881
  H     -821.384    1108.106     120.192
  H     -820.491    1112.436     118.262
  H     -820.042    1111.090     117.185
  H     -818.838    1111.785     118.310
  H     -820.402    1107.104     126.134
  H     -818.944    1106.267     126.609
  H     -819.449    1106.260     124.937

 3  4  5  6  7  8  9  10  11  12  13  23  27  28  29  30  32 0
 6-311+G(2d,p)
 ****
 34  35 0
 6-311+G(2d,p)
 ****
 1  2  14  15  16  17  18  19  20  21  22  24  25  26 0
 3-21G
 ****
 31  33  36  37  38  39  40  41  42  43  44  45  46 0
 3-21G
 ****


