%nproc=1
%NoSave
%Mem=1900MB
#P OB98/GEN NMR

erre ene a

0 1
  C     -292.391     133.810    -212.431
  O     -293.651     133.244    -212.787
  P     -294.890     133.087    -211.792
  C     -294.481     130.570    -211.178
  O     -295.325     131.547    -211.772
  C     -295.262     129.418    -210.517
  O     -296.047     129.942    -209.418
  C     -296.252     128.804    -211.509
  O     -295.825     127.823    -212.430
  C     -297.435     128.367    -210.652
  O     -297.350     126.999    -210.246
  C     -297.341     129.292    -209.429
  N     -302.243     130.314    -208.391
  C     -301.590     129.099    -208.364
  N     -302.323     128.015    -208.080
  N     -300.310     128.969    -208.620
  C     -299.701     130.123    -208.977
  C     -300.257     131.382    -209.059
  C     -301.657     131.530    -208.720
  O     -302.292     132.580    -208.713
  N     -299.335     132.310    -209.481
  C     -298.237     131.619    -209.678
  N     -298.403     130.280    -209.376
  O     -295.977     134.096    -211.956
  O     -294.225     133.316    -210.336
  H     -296.496     126.874    -209.796
  H     -294.914     133.742    -209.781
  H     -303.228     130.363    -208.159
  H     -297.302     132.029    -210.028
  H     -297.406     128.724    -208.491
  H     -298.377     128.474    -211.204
  H     -303.331     128.026    -207.993
  H     -296.635     129.623    -212.129
  H     -301.890     127.100    -208.272
  H     -294.580     128.685    -210.083
  H     -293.861     131.089    -210.438
  H     -293.795     130.162    -211.932
  P     -295.574     128.041    -213.997
  C     -297.422     126.352    -214.553
  O     -296.071     126.728    -214.766
  O     -293.981     127.951    -214.151
  O     -296.092     129.329    -214.548
  H     -293.703     128.322    -215.008
  H     -297.555     125.311    -214.859
  H     -298.079     126.993    -215.151
  H     -297.695     126.445    -213.493
  H     -291.741     133.795    -213.280
  H     -291.955     133.239    -211.638
  H     -292.532     134.820    -212.108

 3  4  5  6  7  8  9  10  11  12  23  26  30  31 0
 6-311+G(2d,p)
 ****
 33  35  36  37  38 0
 6-311+G(2d,p)
 ****
 1  2  13  14  15  16  17  18  19  20  21  22  24  25 0
 3-21G
 ****
 27  28  29  32  34  39  40  41  42  43  44  45  46  47  48  49 0
 3-21G
 ****


