%nproc=1
%NoSave
%Mem=1900MB
#P OB98/GEN NMR

erre ene a

0 1
  C      -97.871     204.961    -474.041
  O      -98.080     204.178    -472.882
  H      -97.327     204.381    -474.785
  H      -98.850     205.246    -474.448
  H      -97.319     205.874    -473.793
  P      -96.777     203.804    -472.017
  C      -95.047     201.856    -472.079
  O      -96.221     202.431    -472.645
  C      -94.373     200.912    -473.074
  O      -95.228     199.736    -473.244
  C      -94.158     201.528    -474.466
  O      -92.898     201.082    -474.972
  C      -95.291     200.957    -475.293
  O      -94.981     200.928    -476.682
  C      -95.469     199.583    -474.663
  N      -98.138     196.101    -477.283
  C      -96.813     196.345    -477.185
  N      -96.173     197.286    -476.466
  C      -97.065     197.986    -475.749
  C      -98.441     197.872    -475.739
  C      -98.991     196.880    -476.567
  N     -100.344     196.656    -476.701
  N      -99.013     198.815    -474.888
  C      -97.994     199.491    -474.406
  N      -96.798     199.039    -474.886
  O      -97.414     203.348    -470.617
  O      -95.774     204.899    -471.851
  H      -95.775     200.636    -477.180
  H      -97.646     204.136    -470.093
  H      -96.173     195.689    -477.777
  H      -98.075     200.322    -473.708
  H      -94.744     198.844    -475.046
  H      -96.200     201.565    -475.153
  H      -94.170     202.625    -474.440
  H      -93.429     200.559    -472.645
  H      -95.315     201.304    -471.162
  H     -100.646     195.949    -477.356
  H     -100.993     197.257    -476.221
  H      -94.351     202.668    -471.813
  P      -91.689     202.155    -474.977
  C      -90.700     203.888    -476.598
  O      -91.592     202.810    -476.438
  O      -90.377     201.229    -474.877
  O      -91.766     203.115    -473.837
  H      -89.799     201.548    -474.161
  H      -90.732     204.230    -477.612
  H      -89.707     203.568    -476.360
  H      -90.984     204.686    -475.944

 6  7  8  9  10  11  12  13  14  15  25  28  32  33  34  35 0
 6-311+G(2d,p)
 ****
 36  39  40 0
 6-311+G(2d,p)
 ****
 1  2  3  4  5  16  17  18  19  20  21  22  23  24 0
 3-21G
 ****
 26  27  29  30  31  37  38  41  42  43  44  45  46  47 0
 3-21G
 ****
 48 0
 3-21G
 ****


