%nproc=1
%NoSave
%Mem=1900MB
#P OB98/GEN NMR

erre ene a

0 1
  C       51.940    -147.211      97.711
  O       51.040    -147.203      96.624
  H       51.713    -148.070      98.350
  H       51.817    -146.299      98.303
  H       52.976    -147.295      97.368
  P       51.320    -146.221      95.388
  C       52.228    -147.480      93.323
  O       51.076    -147.094      94.061
  C       51.957    -148.786      92.573
  O       51.603    -149.812      93.552
  C       50.796    -148.684      91.559
  O       51.089    -149.534      90.443
  C       49.646    -149.259      92.362
  O       48.591    -149.686      91.536
  C       50.348    -150.379      93.126
  N       49.539    -150.851      94.249
  C       48.440    -151.644      93.941
  O       48.119    -151.951      92.792
  N       47.658    -152.023      94.999
  C       47.802    -151.604      96.289
  O       47.030    -151.910      97.185
  C       48.953    -150.720      96.548
  C       49.762    -150.393      95.534
  O       52.619    -145.485      95.419
  O       50.060    -145.231      95.375
  H       47.952    -150.210      92.058
  H       50.278    -144.411      94.893
  H       46.862    -152.608      94.792
  H       49.092    -150.355      97.558
  H       50.609    -149.732      95.685
  H       50.572    -151.224      92.463
  H       49.249    -148.499      93.046
  H       50.616    -147.664      91.217
  H       52.882    -149.120      92.085
  H       53.057    -147.620      94.029
  H       52.491    -146.688      92.615
  P       51.373    -148.943      88.979
  C       53.880    -148.444      89.229
  O       52.899    -149.216      88.544
  O       50.933    -147.524      88.794
  O       50.535    -149.899      87.998
  H       50.047    -149.351      87.353
  H       54.853    -148.701      88.867
  H       53.825    -148.647      90.278
  H       53.699    -147.404      89.057

 6  7  8  9  10  11  12  13  14  15  16  26  31  32  33  34  35 0
 6-311+G(2d,p)
 ****
 36  37 0
 6-311+G(2d,p)
 ****
 1  2  3  4  5  17  18  19  20  21  22  23  24  25 0
 3-21G
 ****
 27  28  29  30  38  39  40  41  42  43  44  45 0
 3-21G
 ****


