%nproc=1
%NoSave
%Mem=1900MB
#P OB98/GEN NMR

erre ene a

0 1
  C     -285.452     -34.247    -104.114
  O     -285.147     -33.533    -102.924
  P     -284.168     -34.240    -101.867
  C     -284.094     -36.641    -100.877
  O     -284.896     -35.607    -101.443
  C     -284.936     -37.541     -99.984
  O     -285.195     -36.885     -98.726
  C     -286.308     -37.881    -100.549
  O     -286.242     -38.939    -101.497
  C     -287.044     -38.325     -99.288
  O     -286.715     -39.693     -98.986
  C     -286.453     -37.386     -98.223
  N     -289.360     -35.215     -94.672
  C     -288.617     -36.378     -94.622
  N     -288.627     -37.048     -93.445
  N     -287.927     -36.848     -95.627
  C     -287.976     -36.057     -96.728
  C     -288.677     -34.881     -96.904
  C     -289.479     -34.398     -95.795
  O     -290.209     -33.409     -95.808
  N     -288.468     -34.359     -98.155
  C     -287.612     -35.190     -98.723
  N     -287.309     -36.248     -97.905
  O     -284.318     -33.319    -100.559
  O     -282.742     -34.357    -102.299
  H     -285.751     -39.733     -98.840
  H     -283.513     -33.391    -100.012
  H     -289.854     -34.891     -93.868
  H     -287.190     -35.060     -99.709
  H     -286.235     -37.925     -97.292
  H     -288.133     -38.270     -99.382
  H     -289.035     -36.670     -92.601
  H     -286.799     -37.000    -100.966
  H     -288.062     -37.887     -93.377
  H     -284.363     -38.454     -99.781
  H     -283.297     -36.192    -100.280
  H     -283.639     -37.218    -101.690
  P     -287.106     -38.756    -102.839
  C     -289.664     -38.669    -103.328
  O     -288.624     -38.961    -102.400
  O     -286.758     -40.079    -103.679
  O     -286.799     -37.508    -103.597
  H     -286.876     -39.907    -104.639
  H     -289.365     -38.936    -104.347
  H     -289.892     -37.601    -103.284
  H     -290.548     -39.241    -103.059
  H     -286.110     -33.662    -104.722
  H     -285.927     -35.172    -103.863
  H     -284.549     -34.445    -104.653

 3  4  5  6  7  8  9  10  11  12  23  26  30  31  33  0
 6-311+G(2d,p)
 ****
 35  36  37  38 0
 6-311+G(2d,p)
 ****
 1  2  13  14  15  16  17  18  19  20  21  22  24  25  27  28  29 0
 3-21G
 ****
 32  34  39  40  41  42  43  44  45  46  47  48  49 0
 3-21G
 ****


