%nproc=1
%NoSave
%Mem=1900MB
#P OB98/GEN NMR

erre ene a

0 1
  C       99.998    -442.011     593.009
  O       98.702    -442.231     593.587
  P       98.348    -443.776     593.936
  C       96.564    -443.721     592.054
  O       96.863    -444.051     593.397
  C       95.044    -443.717     591.812
  O       94.515    -445.068     591.862
  C       94.266    -442.879     592.830
  O       93.164    -442.277     592.129
  C       93.769    -443.943     593.803
  O       92.722    -443.494     594.649
  C       93.414    -445.050     592.818
  N       90.269    -447.919     595.628
  C       90.170    -446.659     595.163
  N       91.063    -445.959     594.425
  C       92.139    -446.704     594.155
  C       92.382    -448.010     594.556
  C       91.389    -448.643     595.322
  N       91.486    -449.915     595.822
  N       93.627    -448.438     594.103
  C       94.145    -447.385     593.492
  N       93.255    -446.345     593.443
  O       98.209    -443.779     595.527
  O       99.382    -444.738     593.453
  H       92.050    -443.037     594.111
  H       99.022    -444.116     595.948
  H       89.255    -446.124     595.443
  H       95.147    -447.311     593.097
  H       92.506    -444.832     592.267
  H       94.608    -444.237     594.452
  H       94.860    -442.095     593.299
  H       94.868    -443.330     590.794
  H       97.032    -444.445     591.372
  H       90.716    -450.276     596.364
  H       92.311    -450.478     595.622
  H       97.009    -442.757     591.807
  P       93.453    -441.024     591.168
  C       91.661    -439.714     592.463
  O       92.073    -440.193     591.177
  O       93.332    -441.740     589.713
  O       94.719    -440.289     591.386
  H       92.529    -442.279     589.651
  H       90.772    -439.103     592.340
  H       92.457    -439.120     592.919
  H       91.405    -440.573     593.106
  H      100.131    -440.967     592.818
  H      100.076    -442.554     592.090
  H      100.753    -442.348     593.688

 3  4  5  6  7  8  9  10  11  12  22  25  29  30  31  32 0
 6-311+G(2d,p)
 ****
 33  36  37 0
 6-311+G(2d,p)
 ****
 1  2  13  14  15  16  17  18  19  20  21  23  24  26 0
 3-21G
 ****
 27  28  34  35  38  39  40  41  42  43  44  45  46  47  48 0
 3-21G
 ****


