%nproc=1
%NoSave
%Mem=1900MB
#P OB98/GEN NMR

erre ene a

0 1
  C      -96.758    -433.283    -615.877
  O      -95.364    -433.427    -616.014
  H      -97.247    -433.937    -616.607
  H      -97.059    -432.251    -616.086
  H      -97.083    -433.571    -614.877
  P      -94.385    -432.547    -615.091
  C      -93.460    -431.483    -617.241
  O      -94.043    -431.234    -615.966
  C      -93.399    -430.200    -618.072
  O      -94.748    -429.705    -618.307
  C      -92.613    -429.056    -617.403
  O      -91.717    -428.465    -618.356
  C      -93.682    -428.048    -617.028
  O      -93.186    -426.713    -616.911
  C      -94.705    -428.277    -618.159
  N      -96.004    -427.704    -617.839
  C      -96.468    -426.699    -618.704
  O      -95.777    -426.347    -619.667
  N      -97.654    -426.079    -618.425
  C      -98.309    -426.399    -617.347
  N      -99.469    -425.731    -617.121
  C      -97.846    -427.439    -616.386
  C      -96.704    -428.050    -616.710
  O      -93.192    -433.278    -614.564
  O      -95.329    -431.962    -613.935
  H      -92.967    -426.379    -617.810
  H      -94.769    -431.721    -613.161
  H      -98.428    -427.656    -615.515
  H      -96.289    -428.817    -616.062
  H      -94.349    -427.849    -619.104
  H      -94.130    -428.331    -616.064
  H      -92.045    -429.377    -616.530
  H      -92.982    -430.435    -619.064
  H      -99.743    -425.018    -617.782
  H      -94.043    -432.246    -617.750
  H     -100.052    -425.875    -616.296
  H      -92.436    -431.842    -617.087
  P      -90.177    -428.945    -618.273
  C      -88.633    -427.546    -616.708
  O      -89.623    -428.567    -616.813
  O      -89.419    -427.930    -619.251
  O      -89.977    -430.372    -618.681
  H      -89.124    -428.405    -620.050
  H      -88.368    -427.411    -615.680
  H      -89.023    -426.630    -617.100
  H      -87.765    -427.832    -617.265

 6  7  8  9  10  11  12  13  14  15  16  26  30  31  32  33  35 0
 6-311+G(2d,p)
 ****
 37  38 0
 6-311+G(2d,p)
 ****
 1  2  3  4  5  17  18  19  20  21  22  23  24  25 0
 3-21G
 ****
 27  28  29  34  36  39  40  41  42  43  44  45  46 0
 3-21G
 ****


