%nproc=1
%NoSave
%Mem=1900MB
#P OB98/GEN NMR

erre ene a

0 1
  C       18.917     124.713    -125.513
  O       20.092     125.523    -125.565
  P       21.277     125.244    -124.523
  C       20.674     126.704    -122.488
  O       20.698     125.393    -123.031
  C       21.871     126.929    -121.553
  O       21.864     125.956    -120.469
  C       23.217     126.787    -122.276
  O       24.191     127.675    -121.708
  C       23.631     125.367    -121.942
  O       25.035     125.177    -122.102
  C       23.125     125.256    -120.506
  N       25.523     120.891    -119.313
  C       25.995     122.116    -119.635
  N       25.297     123.236    -119.918
  C       23.976     123.007    -119.829
  C       23.350     121.815    -119.503
  C       24.184     120.714    -119.244
  N       23.704     119.459    -118.945
  N       21.976     121.960    -119.518
  C       21.779     123.207    -119.894
  N       22.954     123.889    -120.061
  O       22.551     125.977    -124.779
  O       21.492     123.659    -124.650
  H       25.296     124.433    -121.528
  H       22.451     123.466    -124.644
  H       27.077     122.207    -119.677
  H       20.814     123.659    -120.072
  H       23.800     125.752    -119.797
  H       23.112     124.663    -122.602
  H       23.173     126.959    -123.357
  H       21.783     127.920    -121.094
  H       19.741     126.860    -121.942
  H       24.373     118.706    -118.890
  H       22.713     119.281    -119.037
  H       20.668     127.432    -123.308
  P       24.289     129.137    -122.375
  C       25.669     128.123    -124.350
  O       24.560     128.888    -123.933
  O       25.243     130.049    -121.677
  O       22.768     129.629    -122.311
  H       22.119     128.996    -122.662
  H       25.603     127.965    -125.430
  H       25.679     127.148    -123.856
  H       26.598     128.657    -124.131
  H       18.232     125.030    -126.271
  H       18.457     124.813    -124.552
  H       19.182     123.689    -125.677

 3  4  5  6  7  8  9  10  11  12  22  25  29  30  31  32 0
 6-311+G(2d,p)
 ****
 33  36  37 0
 6-311+G(2d,p)
 ****
 1  2  13  14  15  16  17  18  19  20  21  23  24  26 0
 3-21G
 ****
 27  28  34  35  38  39  40  41  42  43  44  45  46  47  48 0
 3-21G
 ****


