%nproc=1
%NoSave
%Mem=1900MB
#P OB98/GEN NMR

erre ene a

0 1
  C     -295.687     940.736     -40.698
  O     -297.019     940.959     -41.116
  P     -297.857     942.098     -40.352
  C     -299.179     942.918     -42.431
  O     -299.226     942.255     -41.177
  C     -300.401     942.542     -43.272
  O     -300.259     941.210     -43.801
  C     -301.719     942.546     -42.522
  O     -302.265     943.850     -42.395
  C     -302.584     941.702     -43.436
  O     -303.030     942.485     -44.549
  C     -301.583     940.621     -43.923
  N     -304.653     936.834     -42.427
  C     -304.893     937.941     -43.136
  N     -304.016     938.918     -43.481
  C     -302.798     938.659     -42.980
  C     -302.405     937.583     -42.223
  C     -303.396     936.620     -41.943
  N     -303.147     935.459     -41.241
  N     -301.070     937.662     -41.887
  C     -300.658     938.763     -42.460
  N     -301.642     939.408     -43.141
  O     -297.042     943.435     -40.711
  O     -297.986     941.907     -38.886
  H     -302.251     942.980     -44.875
  H     -297.226     944.123     -40.046
  H     -305.905     938.084     -43.477
  H     -299.633     939.143     -42.423
  H     -301.738     940.361     -44.973
  H     -303.471     941.304     -42.940
  H     -301.617     942.060     -41.541
  H     -300.442     943.239     -44.132
  H     -298.274     942.613     -42.969
  H     -303.848     934.741     -41.247
  H     -302.174     935.211     -41.065
  H     -299.146     943.996     -42.273
  P     -302.135     944.556     -40.957
  C     -302.591     947.088     -41.371
  O     -303.130     945.835     -41.026
  O     -300.672     945.208     -41.004
  O     -302.318     943.625     -39.811
  H     -300.326     945.309     -40.090
  H     -303.416     947.751     -41.666
  H     -301.895     947.012     -42.205
  H     -302.065     947.521     -40.508
  H     -295.254     939.956     -41.289
  H     -295.680     940.448     -39.667
  H     -295.119     941.635     -40.821

 3  4  5  6  7  8  9  10  11  12  22  25  29  30  31  32 0
 6-311+G(2d,p)
 ****
 33  36  37 0
 6-311+G(2d,p)
 ****
 1  2  13  14  15  16  17  18  19  20  21  23  24  26 0
 3-21G
 ****
 27  28  34  35  38  39  40  41  42  43  44  45  46  47  48 0
 3-21G
 ****


