%nproc=1
%NoSave
%Mem=1900MB
#P OB98/GEN NMR

erre ene a

0 1
  C      252.028     447.059    -326.186
  O      252.124     446.215    -325.051
  H      250.988     447.074    -326.526
  H      252.650     446.656    -326.986
  H      252.337     448.079    -325.937
  P      253.476     446.281    -324.206
  C      253.466     443.735    -323.721
  O      253.450     445.038    -323.176
  C      253.613     442.694    -322.605
  O      254.698     443.103    -321.720
  C      252.345     442.520    -321.736
  O      252.199     441.149    -321.407
  C      252.664     443.327    -320.486
  O      251.934     442.865    -319.346
  C      254.169     443.125    -320.383
  N      255.749     444.399    -315.754
  C      255.239     443.199    -316.235
  N      255.144     442.192    -315.338
  N      254.872     443.006    -317.485
  C      255.080     444.091    -318.259
  C      255.562     445.337    -317.915
  C      255.936     445.536    -316.525
  O      256.367     446.593    -316.046
  N      255.586     446.183    -318.992
  C      255.107     445.459    -320.001
  N      254.788     444.172    -319.599
  O      253.253     447.552    -323.261
  O      254.732     446.410    -325.012
  H      252.158     441.911    -319.220
  H      253.907     448.245    -323.482
  H      256.004     444.497    -314.797
  H      254.970     445.811    -321.007
  H      254.439     442.172    -319.892
  H      252.424     444.383    -320.652
  H      255.440     442.252    -314.371
  H      251.438     442.880    -322.239
  H      254.804     441.293    -315.669
  H      253.917     441.742    -323.054
  H      254.298     443.636    -324.412
  H      252.525     443.559    -324.272
  P      251.014     440.344    -322.148
  C      249.460     440.277    -320.077
  O      250.184     439.527    -321.023
  O      251.793     439.200    -322.954
  O      250.187     441.187    -323.054
  H      251.772     439.392    -323.902
  H      248.964     439.613    -319.400
  H      248.734     440.881    -320.581
  H      250.132     440.906    -319.531

 6  7  8  9  10  11  12  13  14  15  26  29  33  34 0
 6-311+G(2d,p)
 ****
 36  38  39  40  41 0
 6-311+G(2d,p)
 ****
 1  2  3  4  5  16  17  18  19  20  21  22  23  24  25 0
 3-21G
 ****
 27  28  30  31  32  35  37  42  43  44  45  46  47 0
 3-21G
 ****
 48  49 0
 3-21G
 ****


