%nproc=1
%NoSave
%Mem=1900MB
#P OB98/GEN NMR

erre ene a

0 1
  C     -453.769    -114.532     218.797
  O     -454.305    -115.379     219.807
  P     -455.883    -115.308     220.069
  C     -457.651    -116.927     221.088
  O     -456.282    -116.680     220.783
  C     -457.937    -118.420     221.123
  O     -457.809    -118.994     219.801
  C     -456.977    -119.213     222.002
  O     -457.310    -119.048     223.376
  C     -457.184    -120.635     221.482
  O     -458.284    -121.280     222.143
  C     -457.494    -120.395     219.974
  N     -456.397    -120.795     219.105
  C     -456.626    -121.948     218.330
  O     -457.692    -122.554     218.434
  N     -455.631    -122.397     217.503
  C     -454.496    -121.751     217.449
  N     -453.556    -122.236     216.609
  C     -454.214    -120.548     218.260
  C     -455.202    -120.146     219.072
  O     -456.514    -115.457     218.591
  O     -456.346    -114.059     220.756
  H     -458.053    -121.281     223.089
  H     -457.391    -115.041     218.546
  H     -453.256    -120.058     218.171
  H     -455.057    -119.258     219.692
  H     -458.390    -120.945     219.671
  H     -456.294    -121.260     221.653
  H     -455.942    -118.889     221.821
  H     -458.983    -118.580     221.453
  H     -453.769    -123.071     216.056
  H     -458.283    -116.461     220.297
  H     -452.640    -121.809     216.469
  H     -457.906    -116.449     222.040
  P     -456.118    -119.119     224.445
  C     -455.616    -117.874     226.619
  O     -456.380    -117.899     225.429
  O     -454.868    -118.603     223.585
  O     -455.844    -120.453     225.080
  H     -454.044    -118.692     224.106
  H     -455.768    -116.917     227.131
  H     -454.553    -117.981     226.405
  H     -455.936    -118.678     227.285
  H     -452.712    -114.682     218.730
  H     -453.969    -113.511     219.045
  H     -454.223    -114.767     217.857

 3  4  5  6  7  8  9  10  11  12  13  21  23  27  28  29  30  32 0
 6-311+G(2d,p)
 ****
 34  35 0
 6-311+G(2d,p)
 ****
 1  2  14  15  16  17  18  19  20  22  24  25  26 0
 3-21G
 ****
 31  33  36  37  38  39  40  41  42  43  44  45  46 0
 3-21G
 ****


