%nproc=1
%NoSave
%Mem=1900MB
#P OB98/GEN NMR

erre ene a

0 1
  C      483.293     -67.871    -183.339
  O      484.586     -68.093    -183.914
  P      485.393     -66.770    -184.345
  C      487.621     -67.552    -183.281
  O      486.948     -67.162    -184.467
  C      488.770     -68.509    -183.601
  O      488.266     -69.772    -184.122
  C      489.776     -67.950    -184.634
  O      491.085     -68.438    -184.248
  C      489.312     -68.616    -185.912
  O      490.265     -68.574    -186.964
  C      488.960     -70.003    -185.375
  N      489.063     -73.488    -189.118
  C      490.055     -72.876    -188.422
  N      489.937     -71.957    -187.436
  C      488.640     -71.667    -187.197
  C      487.532     -72.204    -187.834
  C      487.773     -73.157    -188.848
  N      486.784     -73.752    -189.574
  N      486.366     -71.639    -187.321
  C      486.787     -70.740    -186.451
  N      488.150     -70.784    -186.277
  O      485.329     -65.841    -183.039
  O      484.821     -66.085    -185.558
  H      490.429     -67.636    -187.207
  H      484.625     -65.173    -183.129
  H      491.059     -73.175    -188.680
  H      486.155     -70.042    -185.919
  H      489.854     -70.595    -185.159
  H      488.407     -68.104    -186.280
  H      489.807     -66.858    -184.679
  H      489.294     -68.743    -182.661
  H      486.928     -68.036    -182.595
  H      487.053     -74.417    -190.283
  H      485.808     -73.532    -189.409
  H      487.985     -66.644    -182.760
  P      492.290     -67.391    -184.146
  C      493.397     -68.773    -182.279
  O      493.528     -68.270    -183.598
  O      491.866     -66.591    -182.816
  O      492.528     -66.530    -185.337
  H      491.651     -67.200    -182.084
  H      494.253     -69.415    -182.073
  H      492.482     -69.373    -182.192
  H      493.374     -67.945    -181.557
  H      482.847     -68.811    -183.090
  H      482.673     -67.357    -184.043
  H      483.393     -67.279    -182.454

 3  4  5  6  7  8  9  10  11  12  22  25  29  30  31  32 0
 6-311+G(2d,p)
 ****
 33  36  37 0
 6-311+G(2d,p)
 ****
 1  2  13  14  15  16  17  18  19  20  21  23  24  26 0
 3-21G
 ****
 27  28  34  35  38  39  40  41  42  43  44  45  46  47  48 0
 3-21G
 ****


