%nproc=1
%NoSave
%Mem=1900MB
#P OB98/GEN NMR

erre ene a

0 1
  C      982.226     502.744    1329.743
  O      981.428     502.961    1328.580
  P      981.193     501.721    1327.597
  C      983.510     501.938    1326.386
  O      982.072     501.931    1326.272
  C      984.144     501.774    1324.996
  O      983.894     500.464    1324.457
  C      983.593     502.713    1323.972
  O      984.136     504.041    1324.140
  C      983.990     502.058    1322.663
  O      985.281     502.517    1322.209
  C      984.011     500.587    1323.024
  N      982.949     499.809    1322.364
  C      982.985     499.814    1320.959
  O      983.852     500.460    1320.345
  N      982.010     499.119    1320.281
  C      981.074     498.500    1320.932
  N      980.159     497.812    1320.209
  C      981.011     498.488    1322.420
  C      981.966     499.153    1323.065
  O      979.690     501.926    1327.075
  O      981.362     500.372    1328.266
  H      985.500     501.934    1321.450
  H      979.260     501.072    1326.920
  H      980.205     497.963    1322.919
  H      981.980     499.214    1324.147
  H      984.971     500.131    1322.768
  H      983.293     502.321    1321.862
  H      982.495     502.806    1324.061
  H      985.241     501.932    1325.113
  H      980.226     497.850    1319.193
  H      983.836     501.129    1327.046
  H      979.366     497.312    1320.614
  H      983.802     502.866    1326.865
  P      983.502     504.998    1325.261
  C      981.869     505.974    1323.566
  O      982.936     506.264    1324.467
  O      984.824     505.627    1325.980
  O      982.594     504.334    1326.277
  H      984.547     506.152    1326.736
  H      981.435     506.950    1323.232
  H      981.093     505.404    1324.030
  H      982.260     505.472    1322.672
  H      982.296     503.654    1330.302
  H      983.206     502.429    1329.450
  H      981.774     501.987    1330.349

 3  4  5  6  7  8  9  10  11  12  13  21  23  27  28  29  30  32 0
 6-311+G(2d,p)
 ****
 34  35 0
 6-311+G(2d,p)
 ****
 1  2  14  15  16  17  18  19  20  22  24  25  26 0
 3-21G
 ****
 31  33  36  37  38  39  40  41  42  43  44  45  46 0
 3-21G
 ****


