%nproc=1
%NoSave
%Mem=1900MB
#P OB98/GEN NMR

erre ene a

0 1
  C      305.607     207.753    -486.755
  O      306.674     207.391    -487.642
  P      306.948     205.829    -487.913
  C      306.350     206.033    -490.414
  O      307.338     205.662    -489.456
  C      306.943     206.950    -491.486
  O      306.946     208.334    -491.060
  C      308.385     206.613    -491.836
  O      308.450     205.439    -492.642
  C      308.827     207.899    -492.541
  O      308.399     207.901    -493.908
  C      308.041     208.980    -491.732
  N      308.876     209.723    -490.811
  C      308.958     211.103    -491.021
  O      308.381     211.632    -491.976
  N      309.715     211.858    -490.150
  C      310.352     211.280    -489.175
  N      311.090     212.081    -488.348
  C      310.304     209.833    -488.920
  C      309.567     209.113    -489.778
  O      305.914     204.883    -487.404
  O      308.369     205.595    -487.178
  H      307.485     207.562    -493.894
  H      308.407     204.679    -486.862
  H      310.835     209.395    -488.101
  H      309.479     208.045    -489.674
  H      307.594     209.699    -492.428
  H      309.906     208.022    -492.521
  H      308.959     206.475    -490.908
  H      306.310     206.868    -492.390
  H      311.106     213.077    -488.551
  H      305.520     206.523    -489.916
  H      311.576     211.735    -487.537
  H      305.940     205.108    -490.862
  P      309.894     204.751    -492.811
  C      309.395     202.645    -491.380
  O      309.684     203.170    -492.663
  O      310.657     205.145    -491.447
  O      310.656     205.201    -494.008
  H      311.598     205.272    -491.623
  H      308.983     201.633    -491.507
  H      308.633     203.248    -490.871
  H      310.302     202.593    -490.767
  H      305.553     208.819    -486.679
  H      305.790     207.335    -485.787
  H      304.682     207.375    -487.137

 3  4  5  6  7  8  9  10  11  12  13  23  27  28  29  30  32 0
 6-311+G(2d,p)
 ****
 34  35 0
 6-311+G(2d,p)
 ****
 1  2  14  15  16  17  18  19  20  21  22  24  25  26 0
 3-21G
 ****
 31  33  36  37  38  39  40  41  42  43  44  45  46 0
 3-21G
 ****


