%nproc=1
%NoSave
%Mem=1900MB
#P OB98/GEN NMR

erre ene a

0 1
  C      551.511    -286.318     -78.281
  O      551.048    -285.273     -77.444
  H      552.025    -285.876     -79.138
  H      550.675    -286.920     -78.643
  H      552.220    -286.952     -77.740
  P      550.255    -285.670     -76.110
  C      548.031    -284.712     -77.010
  O      548.726    -285.862     -76.548
  C      546.664    -285.102     -77.558
  O      546.817    -285.989     -78.686
  C      545.779    -285.829     -76.548
  O      545.150    -284.902     -75.679
  C      544.807    -286.526     -77.490
  O      543.840    -285.575     -77.976
  C      545.740    -286.968     -78.629
  N      545.792    -291.755     -80.292
  C      545.005    -290.691     -80.681
  N      544.062    -290.953     -81.617
  N      545.112    -289.487     -80.183
  C      546.043    -289.395     -79.208
  C      546.871    -290.382     -78.725
  C      546.781    -291.693     -79.324
  O      547.477    -292.665     -79.018
  N      547.642    -289.929     -77.685
  C      547.304    -288.658     -77.564
  N      546.328    -288.289     -78.459
  O      550.433    -284.756     -74.935
  O      550.742    -287.162     -75.794
  H      543.319    -286.033     -78.659
  H      551.505    -287.161     -75.187
  H      545.647    -292.666     -80.705
  H      547.737    -287.967     -76.851
  H      545.237    -286.961     -79.603
  H      544.253    -287.336     -77.014
  H      543.759    -291.895     -81.817
  H      546.334    -286.598     -75.996
  H      543.447    -290.198     -81.884
  H      546.175    -284.194     -77.926
  H      548.641    -284.249     -77.789
  H      547.906    -283.990     -76.190
  P      544.601    -285.354     -74.240
  C      542.281    -284.447     -74.947
  O      543.025    -285.555     -74.446
  O      544.970    -284.451     -73.115
  O      545.121    -286.854     -74.067
  H      546.016    -286.916     -73.655
  H      541.250    -284.720     -75.034
  H      542.659    -284.169     -75.909
  H      542.375    -283.620     -74.274

 6  7  8  9  10  11  12  13  14  15  26  29  33  34 0
 6-311+G(2d,p)
 ****
 36  38  39  40  41 0
 6-311+G(2d,p)
 ****
 1  2  3  4  5  16  17  18  19  20  21  22  23  24  25 0
 3-21G
 ****
 27  28  30  31  32  35  37  42  43  44  45  46  47 0
 3-21G
 ****
 48  49 0
 3-21G
 ****


