%nproc=1
%NoSave
%Mem=1900MB
#P OB98/GEN NMR

erre ene a

0 1
  C      776.851    -287.495    -897.670
  O      778.016    -286.729    -897.400
  H      777.021    -288.523    -897.330
  H      776.632    -287.505    -898.740
  H      775.996    -287.070    -897.120
  P      777.942    -285.167    -897.790
  C      777.213    -284.078    -895.530
  O      776.832    -284.526    -896.820
  C      776.003    -283.990    -894.600
  O      774.990    -283.137    -895.240
  C      775.324    -285.352    -894.350
  O      774.724    -285.329    -893.030
  C      774.220    -285.364    -895.410
  O      773.265    -286.344    -895.110
  C      773.774    -283.916    -895.330
  N      769.233    -282.153    -896.840
  C      769.748    -282.363    -895.610
  N      770.987    -282.815    -895.280
  C      771.705    -283.042    -896.410
  C      771.309    -282.885    -897.710
  C      769.981    -282.410    -897.920
  N      769.451    -282.206    -899.170
  N      772.319    -283.214    -898.600
  C      773.330    -283.613    -897.800
  N      772.981    -283.512    -896.470
  O      777.229    -285.177    -899.220
  O      779.259    -284.448    -897.820
  H      772.720    -286.074    -894.340
  H      777.920    -285.200    -899.930
  H      769.099    -282.121    -894.770
  H      774.299    -283.949    -898.140
  H      773.171    -283.709    -894.420
  H      774.644    -285.603    -896.410
  H      776.019    -286.211    -894.420
  H      776.292    -283.516    -893.650
  H      777.694    -283.085    -895.620
  H      777.956    -284.781    -895.100
  H      768.497    -281.882    -899.220
  H      770.001    -282.432    -900.000
  P      775.105    -286.449    -891.980
  C      775.966    -284.942    -890.020
  O      776.284    -285.933    -890.990
  O      775.922    -287.515    -892.890
  O      773.961    -287.123    -891.290
  H      775.617    -288.423    -892.700
  H      776.840    -284.708    -889.449
  H      775.203    -285.313    -889.368
  H      775.616    -284.059    -890.513

 6  7  8  9  10  11  12  13  14  15  25  28  32  33  34  35 0
 6-311+G(2d,p)
 ****
 36  37  40 0
 6-311+G(2d,p)
 ****
 1  2  3  4  5  16  17  18  19  20  21  22  23  24 0
 3-21G
 ****
 26  27  29  30  31  38  39 41  42  43  44  45  46  47  48 0
 3-21G
 ****


