%nproc=1
%NoSave
%Mem=1900MB
#P OB98/GEN NMR

erre ene a

0 1
  C       85.421    -381.678    -672.603
  O       86.287    -382.732    -672.223
  H       84.949    -381.242    -671.722
  H       86.012    -380.906    -673.104
  H       84.659    -382.043    -673.295
  P       85.618    -383.983    -671.476
  C       87.315    -383.708    -669.526
  O       85.950    -383.789    -669.920
  C       87.464    -382.729    -668.367
  O       86.769    -381.496    -668.667
  C       86.864    -383.221    -667.043
  O       87.744    -384.105    -666.367
  C       86.712    -381.906    -666.300
  O       88.002    -381.482    -665.807
  C       86.243    -380.967    -667.415
  N       82.017    -378.925    -665.365
  C       83.320    -378.833    -665.021
  N       84.388    -379.415    -665.620
  C       83.993    -380.147    -666.673
  C       82.710    -380.339    -667.139
  C       81.680    -379.676    -666.437
  N       80.350    -379.775    -666.776
  N       82.693    -381.190    -668.230
  C       83.963    -381.473    -668.435
  N       84.794    -380.880    -667.516
  O       86.545    -385.219    -671.897
  O       84.173    -384.224    -671.781
  H       88.265    -382.126    -665.124
  H       86.064    -386.055    -671.774
  H       83.536    -378.222    -664.152
  H       84.337    -382.108    -669.233
  H       86.622    -379.950    -667.302
  H       86.050    -381.978    -665.449
  H       85.872    -383.676    -667.195
  H       88.534    -382.490    -668.250
  H       87.911    -383.360    -670.376
  H       79.688    -379.414    -666.108
  H       80.073    -380.451    -667.478
  H       87.664    -384.707    -669.227
  P       87.193    -385.572    -666.020
  C       87.440    -385.010    -663.486
  O       86.591    -385.474    -664.540
  O       88.539    -386.428    -665.825
  O       86.290    -386.164    -667.053
  H       88.380    -387.376    -666.016
  H       86.894    -385.002    -662.566
  H       87.777    -384.019    -663.709
  H       88.284    -385.662    -663.395

 6  7  8  9  10  11  12  13  14  15  25  28  32  33  34  35 0
 6-311+G(2d,p)
 ****
 36  39  40 0
 6-311+G(2d,p)
 ****
 1  2  3  4  5  16  17  18  19  20  21  22  23  24 0
 3-21G
 ****
 26  27  29  30  31  37  38  41  42  43  44  45  46  47 0
 3-21G
 ****
 48 0
 3-21G
 ****


