%nproc=1
%NoSave
%Mem=1900MB
#P OB98/GEN NMR

erre ene a

0 1
  C      -49.844     -13.654     -49.179
  O      -51.252     -13.763     -49.142
  H      -49.440     -14.001     -48.225
  H      -49.556     -12.610     -49.322
  H      -49.430     -14.269     -49.983
  P      -52.044     -13.529     -50.516
  C      -54.292     -12.481     -49.737
  O      -53.608     -13.648     -50.167
  C      -55.393     -12.857     -48.746
  O      -56.441     -13.567     -49.466
  C      -54.921     -13.770     -47.606
  O      -55.631     -13.409     -46.416
  C      -55.375     -15.145     -48.058
  O      -55.535     -16.077     -46.997
  C      -56.692     -14.799     -48.760
  N      -57.133     -15.848     -49.676
  C      -58.059     -16.768     -49.194
  O      -58.594     -16.712     -48.089
  N      -58.369     -17.795     -50.049
  C      -57.842     -17.999     -51.289
  O      -58.145     -18.951     -51.998
  C      -56.862     -16.999     -51.738
  C      -56.557     -15.988     -50.922
  O      -51.744     -14.869     -51.336
  O      -51.669     -12.299     -51.272
  H      -50.935     -14.768     -51.870
  H      -54.676     -16.139     -46.530
  H      -59.038     -18.471     -49.715
  H      -56.414     -17.134     -52.713
  H      -55.822     -15.245     -51.214
  H      -57.477     -14.599     -48.022
  H      -54.652     -15.561     -48.768
  H      -53.844     -13.733     -47.419
  H      -55.841     -11.938     -48.351
  H      -54.745     -11.987     -50.601
  H      -53.577     -11.795     -49.271
  P      -54.794     -12.696     -45.247
  C      -56.809     -13.222     -43.658
  O      -55.875     -12.269     -44.143
  O      -54.383     -11.324     -45.954
  O      -53.654     -13.525     -44.758
  H      -55.068     -10.987     -46.557
  H      -57.446     -12.760     -42.933
  H      -56.284     -14.037     -43.204
  H      -57.401     -13.587     -44.471

 6  7  8  9  10  11  12  13  14  15  16  27  31  32  33  34  35 0
 6-311+G(2d,p)
 ****
 36  37 0
 6-311+G(2d,p)
 ****
 1  2  3  4  5  17  18  19  20  21  22  23  24  25 0
 3-21G
 ****
 26  28  29  30  38  39  40  41  42  43  44  45 0
 3-21G
 ****


