%nproc=1
%NoSave
%Mem=1900MB
#P OB98/GEN NMR

erre ene a

0 1
  C      360.722    -302.644      48.347
  O      359.738    -301.833      48.968
  P      360.062    -300.329      49.411
  C      357.578    -299.548      49.081
  O      358.713    -299.650      49.914
  C      356.333    -299.350      49.961
  O      355.904    -300.616      50.507
  C      356.608    -298.404      51.123
  O      356.225    -297.079      50.786
  C      355.782    -299.007      52.245
  O      354.408    -298.608      52.133
  C      355.928    -300.523      51.955
  N      357.142    -301.211      52.445
  C      357.288    -302.579      52.224
  O      356.474    -303.268      51.613
  N      358.414    -303.146      52.768
  C      359.401    -302.482      53.446
  O      360.263    -303.028      54.123
  C      359.319    -301.020      53.402
  C      358.201    -300.463      52.930
  O      360.345    -299.604      48.009
  O      361.201    -300.172      50.363
  H      354.218    -298.469      51.187
  H      361.306    -299.534      47.847
  H      358.463    -304.164      52.734
  H      360.142    -300.445      53.799
  H      358.100    -299.377      52.922
  H      355.064    -301.077      52.343
  H      356.122    -298.651      53.209
  H      357.665    -298.448      51.404
  H      355.514    -298.965      49.335
  H      357.477    -300.451      48.475
  H      357.689    -298.698      48.397
  P      357.325    -295.911      50.786
  C      356.003    -294.632      48.998
  O      356.552    -294.595      50.307
  O      358.584    -296.219      50.047
  O      357.595    -295.663      52.347
  H      358.402    -296.150      52.620
  H      355.353    -293.762      48.865
  H      355.416    -295.543      48.850
  H      356.813    -294.597      48.265
  H      360.307    -303.607      48.132
  H      361.559    -302.755      49.004
  H      361.042    -302.182      47.436

 3  4  5  6  7  8  9  10  11  12  13  23  28  29  30  31  32 0
 6-311+G(2d,p)
 ****
 33  34 0
 6-311+G(2d,p)
 ****
 1  2  14  15  16  17  18  19  20  21  22  24  25  26  27 0
 3-21G
 ****
 35  36  37  38  39  40  41  42  43  44  45 0
 3-21G
 ****


