%nproc=1
%NoSave
%Mem=1900MB
#P OB98/GEN NMR

erre ene a

0 1
  C       13.126     -32.733     181.428
  O       12.044     -33.627     181.611
  P       12.386     -35.183     181.790
  C       11.720     -35.914     179.377
  O       12.754     -35.759     180.341
  C       12.329     -36.299     178.026
  O       13.032     -35.175     177.453
  C       13.357     -37.419     178.118
  O       12.732     -38.689     178.228
  C       14.133     -37.234     176.822
  O       13.457     -37.866     175.722
  C       14.118     -35.700     176.662
  N       15.394     -35.087     177.015
  C       16.469     -35.389     176.183
  O       16.371     -36.144     175.215
  N       17.667     -34.826     176.523
  C       17.909     -34.055     177.622
  O       19.021     -33.623     177.905
  C       16.743     -33.791     178.484
  C       15.562     -34.317     178.149
  O       10.968     -35.851     182.117
  O       13.396     -35.478     182.848
  H       13.424     -38.821     175.927
  H       11.085     -36.584     182.750
  H       18.451     -35.013     175.920
  H       16.898     -33.181     179.364
  H       14.695     -34.146     178.778
  H       13.888     -35.434     175.622
  H       15.135     -37.668     176.875
  H       14.030     -37.243     178.967
  H       11.516     -36.577     177.346
  H       11.172     -34.975     179.280
  H       11.027     -36.687     179.720
  P       13.536     -39.829     179.024
  C       14.478     -41.057     176.917
  O       14.736     -40.252     178.047
  O       12.489     -41.038     178.948
  O       13.919     -39.417     180.405
  H       11.967     -41.023     178.128
  H       13.506     -40.824     176.472
  H       14.499     -42.110     177.209
  H       15.258     -40.879     176.173
  H       12.751     -31.736     181.323
  H       13.668     -33.005     180.546
  H       13.777     -32.782     182.276

 3  4  5  6  7  8  9  10  11  12  13  23  28  29  30  31  32 0
 6-311+G(2d,p)
 ****
 33  34 0
 6-311+G(2d,p)
 ****
 1  2  14  15  16  17  18  19  20  21  22  24  25  26 0
 3-21G
 ****
 27  35  36  37  38  39  40  41  42  43  44  45 0
 3-21G
 ****


