%nproc=1
%NoSave
%Mem=1900MB
#P OB98/GEN NMR

erre ene a

0 1
  C      605.830     343.274    -103.939
  O      607.083     343.451    -104.618
  P      608.299     344.305    -104.018
  C      609.855     342.263    -104.320
  O      609.404     343.275    -103.443
  C      611.245     341.755    -103.902
  O      612.197     342.851    -103.880
  C      611.326     341.175    -102.501
  O      610.720     339.881    -102.408
  C      612.832     341.185    -102.261
  O      613.454     340.018    -102.819
  C      613.287     342.442    -103.035
  N      613.706     343.522    -102.161
  C      614.910     343.333    -101.459
  O      615.505     342.271    -101.534
  N      615.383     344.363    -100.689
  C      614.660     345.440    -100.533
  N      615.190     346.433     -99.757
  C      613.334     345.609    -101.135
  C      612.916     344.634    -101.935
  O      607.879     345.346    -103.032
  O      609.018     344.973    -105.293
  H      609.474     345.787    -105.012
  H      613.180     339.251    -102.275
  H      612.751     346.516    -100.947
  H      611.957     344.691    -102.435
  H      614.100     342.184    -103.717
  H      613.089     341.206    -101.194
  H      610.837     341.862    -101.789
  H      611.580     341.017    -104.642
  H      616.118     346.285     -99.365
  H      609.928     342.670    -105.343
  H      614.730     347.312     -99.600
  H      609.135     341.426    -104.337
  P      609.761     339.624    -101.157
  C      607.759     339.154    -102.744
  O      608.252     339.883    -101.636
  O      610.075     340.856    -100.170
  O      609.993     338.304    -100.470
  H      610.067     340.537     -99.251
  H      606.667     339.050    -102.634
  H      608.193     338.140    -102.791
  H      607.982     339.699    -103.655
  H      605.182     342.668    -104.538
  H      605.375     344.229    -103.776
  H      605.999     342.794    -102.998

 3  4  5  6  7  8  9  10  11  12  13  24  27  28  29  30  32 0
 6-311+G(2d,p)
 ****
 34  35 0
 6-311+G(2d,p)
 ****
 1  2  14  15  16  17  18  19  20  21  22  23  25  26 0
 3-21G
 ****
 31  33  36  37  38  39  40  41  42  43  44  45  46 0
 3-21G
 ****


