%nproc=1
%NoSave
%Mem=1900MB
#P OB98/GEN NMR

erre ene a

0 1
  C      124.455    -367.686    -117.304
  O      123.915    -367.644    -115.998
  H      124.117    -368.604    -117.794
  H      125.547    -367.695    -117.257
  H      124.116    -366.832    -117.897
  P      124.030    -366.285    -115.159
  C      125.591    -365.388    -113.311
  O      125.385    -366.383    -114.302
  C      126.948    -365.577    -112.632
  O      126.897    -366.786    -111.810
  C      128.129    -365.747    -113.615
  O      129.292    -365.177    -112.993
  C      128.233    -367.258    -113.691
  O      129.439    -367.671    -114.278
  C      128.009    -367.612    -112.218
  N      127.739    -369.021    -111.990
  C      128.119    -369.557    -110.761
  O      128.645    -368.905    -109.860
  N      127.881    -370.896    -110.599
  C      127.322    -371.729    -111.522
  O      127.111    -372.922    -111.312
  C      126.966    -371.115    -112.813
  C      127.189    -369.809    -112.982
  O      122.816    -365.899    -114.377
  O      124.387    -365.185    -116.265
  H      123.575    -364.712    -116.533
  H      129.481    -367.387    -115.213
  H      128.152    -371.303    -109.716
  H      126.540    -371.753    -113.572
  H      126.941    -369.320    -113.922
  H      128.869    -367.306    -111.614
  H      127.425    -367.660    -114.314
  H      127.952    -365.258    -114.578
  H      127.128    -364.733    -111.942
  H      124.791    -365.471    -112.568
  H      125.542    -364.397    -113.777
  P      130.456    -364.432    -113.809
  C      132.673    -365.009    -114.991
  O      131.552    -365.510    -114.274
  O      131.040    -363.263    -113.085
  O      129.774    -363.963    -115.183
  H      130.156    -363.099    -115.446
  H      133.326    -365.818    -115.243
  H      133.199    -364.303    -114.383
  H      132.338    -364.529    -115.887

 6  7  8  9  10  11  12  13  14  15  16  27  31  32  33  34  35 0
 6-311+G(2d,p)
 ****
 36  37 0
 6-311+G(2d,p)
 ****
 1  2  3  4  5  17  18  19  20  21  22  23  24  25 0
 3-21G
 ****
 26  28  29  30  38  39  40  41  42  43  44  45 0
 3-21G
 ****


