%nproc=1
%NoSave
%Mem=1900MB
#P OB98/GEN NMR

erre ene a

0 1
  C      484.537    -527.559     309.326
  O      484.319    -526.277     309.891
  P      485.583    -525.532     310.550
  C      484.645    -523.229     309.799
  O      485.128    -524.032     310.868
  C      484.464    -521.784     310.263
  O      485.701    -521.283     310.812
  C      484.081    -520.801     309.160
  O      482.719    -520.928     308.813
  C      484.443    -519.479     309.826
  O      483.418    -519.090     310.757
  C      485.728    -519.845     310.594
  N      489.000    -516.070     309.446
  C      487.861    -516.086     310.179
  N      487.032    -517.127     310.419
  C      487.486    -518.245     309.820
  C      488.609    -518.374     309.025
  C      489.389    -517.220     308.846
  N      490.548    -517.203     308.097
  N      488.743    -519.667     308.563
  C      487.714    -520.310     309.079
  N      486.936    -519.494     309.863
  O      486.589    -525.370     309.319
  O      486.213    -526.265     311.690
  H      482.621    -518.868     310.232
  H      487.519    -525.442     309.612
  H      487.579    -515.144     310.627
  H      487.502    -521.357     308.934
  H      485.791    -519.363     311.577
  H      484.575    -518.659     309.113
  H      484.707    -520.958     308.279
  H      483.715    -521.774     311.066
  H      483.673    -523.610     309.464
  H      490.965    -516.312     307.900
  H      490.766    -518.023     307.535
  H      485.345    -523.285     308.961
  P      482.361    -520.998     307.245
  C      480.544    -522.584     308.148
  O      480.856    -521.552     307.222
  O      483.213    -522.273     306.781
  O      482.603    -519.742     306.493
  H      483.081    -523.035     307.368
  H      479.490    -522.831     308.065
  H      480.755    -522.250     309.170
  H      481.144    -523.479     307.925
  H      483.618    -527.934     308.927
  H      484.896    -528.226     310.082
  H      485.262    -527.485     308.543

 3  4  5  6  7  8  9  10  11  12  22  25  29  30  31  32 0
 6-311+G(2d,p)
 ****
 33  36  37 0
 6-311+G(2d,p)
 ****
 1  2  13  14  15  16  17  18  19  20  21  23  24  26 0
 3-21G
 ****
 27  28  34  35  38  39  40  41  42  43  44  45  46  47  48 0
 3-21G
 ****


