%nproc=1
%NoSave
%Mem=1900MB
#P OB98/GEN NMR

erre ene a

0 1
  C      165.978      51.385     123.507
  O      167.133      50.925     124.178
  H      165.280      51.785     124.244
  H      165.499      50.554     122.982
  H      166.238      52.175     122.799
  P      168.333      50.375     123.265
  C      168.436      52.562     121.874
  O      168.230      51.157     121.864
  C      169.926      52.891     121.861
  O      170.523      52.324     120.654
  C      170.242      54.395     121.864
  O      171.440      54.595     122.625
  C      170.558      54.679     120.404
  O      171.339      55.858     120.230
  C      171.271      53.382     120.026
  N      172.910      55.488     115.760
  C      173.036      55.903     117.071
  N      173.704      57.058     117.282
  N      172.554      55.242     118.089
  C      171.938      54.086     117.734
  C      171.742      53.568     116.477
  C      172.259      54.325     115.356
  O      172.161      54.019     114.172
  N      171.046      52.386     116.534
  C      170.826      52.192     117.821
  N      171.348      53.197     118.589
  O      167.849      48.893     122.907
  O      169.681      50.384     123.904
  H      170.769      56.628     120.431
  H      168.219      48.253     123.544
  H      173.289      56.042     115.012
  H      170.295      51.350     118.247
  H      172.300      53.346     120.405
  H      169.628      54.796     119.831
  H      174.144      57.596     116.553
  H      169.440      55.025     122.261
  H      173.845      57.357     118.242
  H      170.402      52.391     122.712
  H      167.984      52.978     122.782
  H      167.947      53.004     121.000
  P      171.344      55.470     123.964
  C      170.857      53.494     125.582
  O      170.389      54.699     124.994
  O      170.440      56.715     123.510
  O      172.661      55.915     124.503
  H      170.657      57.495     124.049
  H      170.109      53.105     126.241
  H      171.752      53.691     126.135
  H      171.063      52.779     124.813

 6  7  8  9  10  11  12  13  14  15  26  29  33  34 0
 6-311+G(2d,p)
 ****
 36  38  39  40  41 0
 6-311+G(2d,p)
 ****
 1  2  3  4  5  16  17  18  19  20  21  22  23  24  25 0
 3-21G
 ****
 27  28  30  31  32  35  37  42  43  44  45  46  47 0
 3-21G
 ****
 48  49 0
 3-21G
 ****


