%nproc=1
%NoSave
%Mem=1900MB
#P OB98/GEN NMR

erre ene a

0 1
  C     1302.096    -449.815    -830.768
  O     1300.960    -450.198    -831.531
  H     1302.932    -450.463    -831.028
  H     1301.896    -449.893    -829.705
  H     1302.373    -448.786    -831.017
  P     1299.546    -449.552    -831.157
  C     1297.833    -450.957    -829.805
  O     1299.094    -450.274    -829.781
  C     1297.971    -452.349    -830.412
  O     1298.928    -453.128    -829.655
  C     1296.683    -453.160    -830.373
  O     1295.684    -452.693    -831.253
  C     1297.192    -454.606    -830.528
  O     1297.381    -454.992    -831.888
  C     1298.572    -454.507    -829.807
  N     1298.557    -455.229    -828.527
  C     1298.096    -456.533    -828.579
  O     1297.710    -457.096    -829.598
  N     1298.085    -457.195    -827.364
  C     1298.406    -456.659    -826.158
  O     1298.332    -457.301    -825.119
  C     1298.859    -455.263    -826.173
  C     1298.911    -454.605    -827.335
  O     1298.499    -449.587    -832.239
  O     1299.916    -448.071    -830.671
  H     1297.819    -455.864    -831.888
  H     1299.105    -447.488    -830.664
  H     1297.769    -458.162    -827.379
  H     1299.118    -454.804    -825.227
  H     1299.224    -453.572    -827.378
  H     1299.349    -454.977    -830.435
  H     1296.503    -455.315    -830.070
  H     1296.272    -453.091    -829.370
  H     1298.361    -452.248    -831.446
  H     1297.149    -450.355    -830.431
  H     1297.426    -451.012    -828.794
  P     1294.120    -453.068    -831.109
  C     1293.331    -454.944    -832.741
  O     1293.940    -454.639    -831.491
  O     1293.136    -452.064    -831.630
  O     1293.971    -453.090    -829.478
  H     1293.083    -452.764    -829.277
  H     1293.277    -456.006    -832.862
  H     1293.914    -454.524    -833.534
  H     1292.344    -454.531    -832.767

 6  7  8  9  10  11  12  13  14  15  16  26  31  32  33  34  35 0
 6-311+G(2d,p)
 ****
 36  37 0
 6-311+G(2d,p)
 ****
 1  2  3  4  5  17  18  19  20  21  22  23  24  25 0
 3-21G
 ****
 27  28  29  30  38  39  40  41  42  43  44  45 0
 3-21G
 ****


