%nproc=1
%NoSave
%Mem=1900MB
#P OB98/GEN NMR

erre ene a

0 1
  C      -26.794     266.199     225.549
  O      -27.833     266.799     226.331
  P      -29.210     267.210     225.623
  C      -30.540     265.110     226.320
  O      -30.429     266.525     226.420
  C      -31.348     264.544     227.496
  O      -30.523     264.474     228.698
  C      -32.572     265.406     227.840
  O      -33.647     264.581     228.320
  C      -32.076     266.244     229.006
  O      -33.160     266.764     229.780
  C      -31.191     265.232     229.727
  N      -30.156     266.581     234.567
  C      -31.186     265.889     234.023
  N      -31.381     265.549     232.732
  C      -30.368     265.984     231.964
  C      -29.245     266.693     232.378
  C      -29.161     267.002     233.746
  N      -28.127     267.731     234.291
  N      -28.421     266.972     231.306
  C      -29.058     266.483     230.257
  N      -30.220     265.849     230.610
  O      -29.249     267.035     224.135
  O      -29.368     268.757     226.021
  H      -33.697     267.326     229.191
  H      -29.684     269.257     225.241
  H      -31.957     265.572     234.725
  H      -28.729     266.574     229.230
  H      -31.781     264.528     230.325
  H      -31.485     267.094     228.627
  H      -32.941     266.024     227.015
  H      -31.652     263.516     227.255
  H      -29.544     264.663     226.298
  H      -28.207     268.003     235.262
  H      -27.461     268.171     233.672
  H      -31.001     264.853     225.358
  P      -35.059     264.737     227.549
  C      -34.919     263.562     225.213
  O      -35.176     263.452     226.594
  O      -35.228     266.068     226.891
  O      -36.110     264.463     228.725
  H      -35.941     263.652     229.240
  H      -34.924     262.557     224.773
  H      -33.933     264.012     225.033
  H      -35.692     264.168     224.735
  H      -25.952     265.990     226.175
  H      -26.501     266.871     224.769
  H      -27.153     265.288     225.118

 3  4  5  6  7  8  9  10  11  12  22  25  29  30  31  32 0
 6-311+G(2d,p)
 ****
 33  36  37 0
 6-311+G(2d,p)
 ****
 1  2  13  14  15  16  17  18  19  20  21  23  24  26 0
 3-21G
 ****
 27  28  34  35  38  39  40  41  42  43  44  45  46  47  48 0
 3-21G
 ****


