%nproc=1
%NoSave
%Mem=1900MB
#P OB98/GEN NMR

erre ene a

0 1
  C     -242.029     254.180    -223.011
  O     -242.840     253.320    -223.816
  P     -244.065     252.584    -223.075
  C     -246.042     253.681    -224.365
  O     -245.327     253.575    -223.141
  C     -247.307     254.517    -224.180
  O     -248.137     253.978    -223.137
  C     -247.047     255.961    -223.773
  O     -246.683     256.765    -224.886
  C     -248.413     256.368    -223.239
  O     -249.272     256.744    -224.329
  C     -248.913     255.069    -222.584
  N     -250.453     257.118    -218.211
  C     -250.845     257.395    -219.506
  N     -251.804     258.335    -219.653
  N     -250.343     256.806    -220.560
  C     -249.416     255.867    -220.259
  C     -248.943     255.501    -219.020
  C     -249.483     256.184    -217.863
  O     -249.149     255.997    -216.699
  N     -248.009     254.503    -219.114
  C     -247.936     254.244    -220.404
  N     -248.762     255.057    -221.143
  O     -243.635     252.639    -221.534
  O     -244.304     251.188    -223.541
  H     -248.879     257.538    -224.744
  H     -244.043     251.899    -221.046
  H     -250.867     257.605    -217.438
  H     -247.310     253.482    -220.852
  H     -249.965     254.872    -222.821
  H     -248.365     257.225    -222.562
  H     -252.284     258.775    -218.884
  H     -246.303     256.013    -222.968
  H     -252.129     258.528    -220.593
  H     -247.871     254.492    -225.123
  H     -246.315     252.687    -224.723
  H     -245.386     254.123    -225.121
  P     -245.495     257.821    -224.668
  C     -244.218     256.743    -226.653
  O     -244.191     257.135    -225.296
  O     -245.244     257.766    -223.090
  O     -245.804     259.202    -225.140
  H     -244.901     258.622    -222.773
  H     -244.685     257.510    -227.277
  H     -244.767     255.803    -226.754
  H     -243.192     256.591    -226.996
  H     -241.255     254.607    -223.613
  H     -241.591     253.615    -222.215
  H     -242.635     254.962    -222.602

 3  4  5  6  7  8  9  10  11  12  23  26  30  31  33  0
 6-311+G(2d,p)
 ****
 35  36  37  38 0
 6-311+G(2d,p)
 ****
 1  2  13  14  15  16  17  18  19  20  21  22  24  25  27  28  29 0
 3-21G
 ****
 32  34  39  40  41  42  43  44  45  46  47  48  49 0
 3-21G
 ****


