%nproc=1
%NoSave
%Mem=1900MB
#P OB98/GEN NMR

erre ene a

0 1
  C     -396.607     -17.399     -17.334
  O     -396.750     -18.804     -17.464
  P     -398.009     -19.430     -18.234
  C     -396.916     -19.951     -20.502
  O     -397.805     -19.097     -19.791
  C     -396.945     -19.635     -21.996
  O     -395.826     -20.292     -22.635
  C     -398.215     -20.113     -22.693
  O     -398.570     -19.169     -23.706
  C     -397.806     -21.411     -23.370
  O     -398.633     -21.685     -24.513
  C     -396.334     -21.132     -23.690
  N     -393.584     -24.255     -26.694
  C     -394.224     -23.094     -26.954
  N     -394.957     -22.332     -26.114
  C     -394.945     -22.849     -24.876
  C     -394.334     -24.022     -24.460
  C     -393.626     -24.745     -25.434
  N     -392.962     -25.923     -25.164
  N     -394.571     -24.246     -23.116
  C     -395.293     -23.217     -22.729
  N     -395.537     -22.340     -23.752
  O     -399.338     -19.041     -17.688
  O     -397.778     -21.009     -18.168
  H     -399.542     -21.832     -24.179
  H     -398.627     -21.472     -18.036
  H     -394.139     -22.731     -27.973
  H     -395.671     -23.066     -21.729
  H     -396.219     -20.591     -24.637
  H     -397.914     -22.242     -22.668
  H     -399.052     -20.253     -22.002
  H     -396.812     -18.556     -22.128
  H     -397.236     -20.987     -20.347
  H     -392.382     -26.305     -25.893
  H     -392.850     -26.194     -24.196
  H     -395.904     -19.838     -20.102
  P     -400.092     -19.241     -24.230
  C     -399.968     -16.648     -24.036
  O     -400.724     -17.823     -23.839
  O     -400.798     -20.462     -23.740
  O     -399.875     -19.184     -25.817
  H     -399.028     -18.743     -26.050
  H     -400.551     -15.795     -23.678
  H     -399.766     -16.505     -25.102
  H     -399.029     -16.698     -23.483
  H     -395.710     -17.180     -16.793
  H     -397.448     -17.002     -16.805
  H     -396.554     -16.954     -18.306

 3  4  5  6  7  8  9  10  11  12  22  25  29  30  31  32 0
 6-311+G(2d,p)
 ****
 33  36  37 0
 6-311+G(2d,p)
 ****
 1  2  13  14  15  16  17  18  19  20  21  23  24  26 0
 3-21G
 ****
 27  28  34  35  38  39  40  41  42  43  44  45  46  47  48 0
 3-21G
 ****


