%nproc=1
%NoSave
%Mem=1900MB
#P OB98/GEN NMR

erre ene a

0 1
  C      329.466     172.000     -88.350
  O      328.741     171.250     -89.300
  H      329.659     172.994     -88.767
  H      330.428     171.527     -88.136
  H      328.890     172.112     -87.428
  P      328.488     169.687     -89.029
  C      325.957     170.131     -89.039
  O      327.021     169.395     -89.640
  C      324.841     170.414     -90.046
  O      325.347     171.260     -91.111
  C      324.252     169.155     -90.697
  O      322.824     169.232     -90.676
  C      324.767     169.215     -92.127
  O      323.933     168.491     -93.032
  C      324.834     170.729     -92.352
  N      325.680     171.103     -93.484
  C      325.122     172.002     -94.402
  O      323.973     172.416     -94.249
  N      325.871     172.390     -95.485
  C      327.053     171.883     -95.668
  N      327.744     172.300     -96.769
  C      327.659     170.897     -94.749
  C      326.928     170.558     -93.689
  O      328.673     169.259     -87.610
  O      329.458     168.936     -90.055
  H      324.316     168.573     -93.937
  H      329.604     168.007     -89.750
  H      328.642     170.491     -94.951
  H      327.293     169.847     -92.951
  H      323.834     171.146     -92.514
  H      325.776     168.787     -92.176
  H      324.556     168.238     -90.205
  H      324.064     170.996     -89.540
  H      327.287     172.978     -97.372
  H      326.363     171.070     -88.643
  H      328.666     171.969     -97.009
  H      325.555     169.535     -88.213
  P      322.054     167.916     -90.167
  C      320.451     169.291     -88.659
  O      320.571     168.351     -89.722
  O      322.788     167.578     -88.783
  O      322.116     166.773     -91.118
  H      323.433     166.862     -88.909
  H      319.416     169.487     -88.471
  H      320.942     170.202     -88.931
  H      320.904     168.891     -87.776

 6  7  8  9  10  11  12  13  14  15  16  26  30  31  32  33  35 0
 6-311+G(2d,p)
 ****
 37  38 0
 6-311+G(2d,p)
 ****
 1  2  3  4  5  17  18  19  20  21  22  23  24  25 0
 3-21G
 ****
 27  28  29  34  36  39  40  41  42  43  44  45  46 0
 3-21G
 ****


