%nproc=1
%NoSave
%Mem=1900MB
#P OB98/GEN NMR

erre ene a

0 1
  C      512.022     871.755    -758.948
  O      512.593     871.783    -760.247
  P      512.119     870.852    -761.453
  C      510.757     872.814    -762.501
  O      510.749     871.473    -762.034
  C      510.515     872.936    -764.002
  O      509.380     872.132    -764.381
  C      510.155     874.390    -764.352
  O      511.170     875.356    -764.549
  C      509.152     874.274    -765.499
  O      509.755     874.453    -766.780
  C      508.610     872.841    -765.372
  N      503.909     871.796    -766.967
  C      505.126     871.463    -767.533
  N      505.054     870.943    -768.799
  N      506.262     871.635    -766.947
  C      506.181     872.245    -765.743
  C      505.046     872.601    -765.063
  C      503.761     872.361    -765.690
  O      502.677     872.727    -765.253
  N      505.341     873.265    -763.891
  C      506.653     873.333    -763.879
  N      507.205     872.770    -764.998
  O      512.217     869.380    -761.234
  O      513.169     871.248    -762.603
  H      510.487     873.829    -766.863
  H      513.346     870.449    -763.139
  H      503.049     871.700    -767.492
  H      507.233     873.819    -763.106
  H      508.721     872.298    -766.316
  H      508.373     875.042    -765.419
  H      504.205     870.937    -769.319
  H      509.579     874.786    -763.516
  H      505.936     870.859    -769.303
  H      511.360     872.535    -764.564
  H      511.713     873.244    -762.203
  H      509.965     873.372    -761.964
  P      511.242     876.813    -763.897
  C      512.490     875.997    -761.811
  O      511.326     876.652    -762.307
  O      509.755     877.402    -764.115
  O      512.256     877.720    -764.497
  H      509.773     878.374    -764.090
  H      512.307     875.684    -760.783
  H      513.354     876.699    -761.829
  H      512.726     875.118    -762.429
  H      512.515     872.472    -758.326
  H      512.139     870.778    -758.528
  H      510.981     871.994    -759.011

 3  4  5  6  7  8  9  10  11  12  23  26  30  31 0
 6-311+G(2d,p)
 ****
 33  35  36  37  38 0
 6-311+G(2d,p)
 ****
 1  2  13  14  15  16  17  18  19  20  21  22  24  25 0
 3-21G
 ****
 27  28  29  32  34  39  40  41  42  43  44  45  46  47  48  49 0
 3-21G
 ****


