%nproc=1
%NoSave
%Mem=1900MB
#P OB98/GEN NMR

erre ene a

0 1
  C      386.075     897.066     382.422
  O      385.687     898.385     382.074
  H      387.048     896.856     381.977
  H      385.345     896.347     382.035
  H      386.159     896.964     383.505
  P      384.286     898.894     382.666
  C      383.297     898.876     380.249
  O      383.160     898.459     381.609
  C      382.156     898.307     379.417
  O      382.402     896.910     379.142
  C      380.797     898.355     380.112
  O      380.204     899.644     380.058
  C      380.028     897.302     379.327
  O      379.491     897.851     378.103
  C      381.109     896.268     379.018
  N      379.284     891.516     379.466
  C      379.274     892.397     378.436
  N      379.796     893.639     378.382
  C      380.396     893.941     379.553
  C      380.494     893.144     380.683
  C      379.910     891.875     380.621
  N      379.883     890.990     381.673
  N      381.155     893.819     381.697
  C      381.463     894.995     381.184
  N      381.035     895.108     379.885
  O      384.375     900.491     382.480
  O      384.015     898.517     384.083
  H      378.835     898.517     378.387
  H      384.617     900.898     383.329
  H      378.781     892.057     377.527
  H      381.983     895.792     381.700
  H      381.031     895.897     377.980
  H      379.192     896.909     379.910
  H      380.894     898.021     381.151
  H      382.121     898.846     378.457
  H      384.250     898.524     379.852
  H      383.283     899.971     380.225
  H      379.394     890.126     381.574
  H      380.243     891.298     382.567
  P      378.843     899.875     380.882
  C      377.498     900.307     378.678
  O      377.630     899.544     379.891
  O      378.776     901.454     381.064
  O      378.796     899.158     382.185
  H      378.384     901.680     381.941
  H      376.644     899.964     378.132
  H      378.377     900.182     378.081
  H      377.375     901.342     378.919

 6  7  8  9  10  11  12  13  14  15  25  28  32  33  34  35 0
 6-311+G(2d,p)
 ****
 36  37  40 0
 6-311+G(2d,p)
 ****
 1  2  3  4  5  16  17  18  19  20  21  22  23  24 0
 3-21G
 ****
 26  27  29  30  31  38  39 41  42  43  44  45  46  47  48 0
 3-21G
 ****


