%nproc=1
%NoSave
%Mem=1900MB
#P OB98/GEN NMR

erre ene a

0 1
  C        8.524      87.927    -147.911
  O        9.187      88.462    -146.783
  H        8.880      86.904    -148.071
  H        8.756      88.518    -148.802
  H        7.443      87.902    -147.752
  P        8.737      89.904    -146.236
  C        8.808      92.333    -147.105
  O        9.176      90.981    -147.340
  C        9.340      93.219    -148.232
  O       10.774      93.093    -148.332
  C        8.794      92.856    -149.607
  O        7.468      93.319    -149.770
  C        9.820      93.530    -150.508
  O        9.544      94.932    -150.639
  C       11.129      93.293    -149.719
  N       11.909      92.167    -150.234
  C       12.745      92.435    -151.315
  O       12.823      93.543    -151.854
  N       13.476      91.374    -151.781
  C       13.368      90.081    -151.360
  O       13.980      89.149    -151.872
  C       12.451      89.849    -150.234
  C       11.774      90.889    -149.729
  O        9.154      90.224    -144.840
  O        7.141      89.878    -146.378
  H       10.258      95.301    -151.191
  H        6.739      89.759    -145.497
  H       14.078      91.546    -152.570
  H       12.349      88.841    -149.862
  H       11.090      90.739    -148.903
  H       11.759      94.193    -149.753
  H        9.828      93.106    -151.512
  H        8.848      91.771    -149.759
  H        9.110      94.266    -147.980
  H        9.245      92.657    -146.151
  H        7.718      92.400    -147.038
  P        6.315      92.297    -150.204
  C        5.638      90.983    -152.311
  O        6.504      91.979    -151.765
  O        4.929      92.691    -149.804
  O        6.736      90.923    -149.499
  H        6.033      90.643    -148.882
  H        5.853      90.855    -153.351
  H        4.620      91.291    -152.192
  H        5.792      90.056    -151.799

 6  7  8  9  10  11  12  13  14  15  16  26  31  32  33  34  35 0
 6-311+G(2d,p)
 ****
 36  37 0
 6-311+G(2d,p)
 ****
 1  2  3  4  5  17  18  19  20  21  22  23  24  25 0
 3-21G
 ****
 27  28  29  30  38  39  40  41  42  43  44  45 0
 3-21G
 ****


