%nproc=1
%NoSave
%Mem=1900MB
#P OB98/GEN NMR

erre ene a

0 1
  C      -38.492      49.320     152.182
  O      -39.623      48.668     152.720
  H      -37.784      49.520     152.990
  H      -38.783      50.269     151.725
  H      -38.008      48.681     151.439
  P      -40.818      48.332     151.704
  C      -42.123      49.880     150.076
  O      -41.533      49.727     151.358
  C      -43.168      50.989     150.122
  O      -44.319      50.546     150.878
  C      -42.696      52.261     150.812
  O      -41.871      53.052     149.974
  C      -44.025      52.926     151.129
  O      -44.525      53.666     150.005
  C      -44.933      51.719     151.449
  N      -45.170      51.572     152.880
  C      -46.236      52.304     153.395
  O      -46.946      53.034     152.705
  N      -46.438      52.198     154.743
  C      -45.672      51.480     155.613
  O      -45.863      51.485     156.823
  C      -44.567      50.715     155.011
  C      -44.363      50.803     153.695
  O      -41.883      47.579     152.633
  O      -40.428      47.517     150.517
  H      -41.842      46.617     152.472
  H      -45.406      53.997     150.268
  H      -47.199      52.729     155.136
  H      -43.942      50.128     155.674
  H      -43.542      50.264     153.231
  H      -45.908      51.834     150.955
  H      -43.932      53.632     151.956
  H      -42.189      52.016     151.752
  H      -43.493      51.203     149.095
  H      -42.607      48.944     149.781
  H      -41.338      50.115     149.349
  P      -40.701      53.917     150.647
  C      -40.625      56.226     151.899
  O      -41.396      55.231     151.250
  O      -39.923      54.443     149.354
  O      -39.868      53.148     151.617
  H      -40.514      54.637     148.608
  H      -41.267      57.016     152.228
  H      -39.900      56.617     151.216
  H      -40.126      55.797     152.743

 6  7  8  9  10  11  12  13  14  15  16  27  31  32  33  34  35 0
 6-311+G(2d,p)
 ****
 36  37 0
 6-311+G(2d,p)
 ****
 1  2  3  4  5  17  18  19  20  21  22  23  24  25 0
 3-21G
 ****
 26  28  29  30  38  39  40  41  42  43  44  45 0
 3-21G
 ****


