%nproc=1
%NoSave
%Mem=1900MB
#P OB98/GEN NMR

erre ene a

0 1
  C      510.566    -456.898    -498.332
  O      509.843    -457.306    -499.489
  P      509.057    -456.206    -500.358
  C      509.852    -457.055    -502.669
  O      509.825    -455.967    -501.739
  C      509.987    -456.520    -504.093
  O      508.723    -456.011    -504.588
  C      510.941    -455.335    -504.217
  O      512.327    -455.630    -504.027
  C      510.541    -454.718    -505.531
  O      511.148    -455.389    -506.641
  C      509.010    -454.957    -505.529
  N      508.250    -453.741    -505.208
  C      508.258    -452.743    -506.178
  O      508.893    -452.824    -507.231
  N      507.547    -451.621    -505.878
  C      506.859    -451.385    -504.707
  O      506.249    -450.340    -504.492
  C      506.908    -452.459    -503.714
  C      507.585    -453.573    -503.997
  O      508.672    -454.968    -499.619
  O      507.746    -457.005    -500.824
  H      510.987    -456.338    -506.546
  H      506.984    -456.392    -500.752
  H      507.524    -450.884    -506.567
  H      506.379    -452.310    -502.788
  H      507.634    -454.376    -503.286
  H      508.676    -455.303    -506.519
  H      510.840    -453.668    -505.592
  H      510.682    -454.621    -503.423
  H      510.280    -457.349    -504.753
  H      508.944    -457.650    -502.563
  H      510.696    -457.712    -502.406
  P      513.055    -455.509    -502.590
  C      514.025    -457.916    -502.749
  O      513.254    -456.997    -502.014
  O      512.564    -454.471    -501.652
  O      514.560    -455.134    -503.045
  H      514.935    -454.557    -502.350
  H      514.045    -458.880    -502.220
  H      515.047    -457.565    -502.862
  H      513.568    -458.078    -503.731
  H      511.025    -457.752    -497.878
  H      509.895    -456.441    -497.635
  H      511.322    -456.195    -498.613

 3  4  5  6  7  8  9  10  11  12  13  23  28  29  30  31  32 0
 6-311+G(2d,p)
 ****
 33  34 0
 6-311+G(2d,p)
 ****
 1  2  14  15  16  17  18  19  20  21  22  24  25  26  27 0
 3-21G
 ****
 35  36  37  38  39  40  41  42  43  44  45 0
 3-21G
 ****


