%nproc=1
%NoSave
%Mem=1900MB
#P OB98/GEN NMR

erre ene a

0 1
  C      764.606     -38.412    -168.194
  O      764.064     -37.101    -168.094
  H      764.055     -38.963    -168.950
  H      764.523     -38.931    -167.237
  H      765.662     -38.362    -168.494
  P      764.715     -36.086    -167.040
  C      762.491     -35.628    -165.792
  O      763.808     -36.172    -165.727
  C      761.701     -35.976    -164.545
  O      761.500     -37.401    -164.472
  C      762.386     -35.565    -163.241
  O      762.165     -34.192    -162.984
  C      761.678     -36.479    -162.255
  O      760.358     -35.972    -161.977
  C      761.591     -37.791    -163.068
  N      763.518     -41.640    -160.385
  C      762.338     -40.935    -160.212
  N      761.585     -41.281    -159.129
  N      761.938     -39.970    -160.995
  C      762.824     -39.694    -161.978
  C      764.033     -40.310    -162.250
  C      764.423     -41.406    -161.399
  O      765.463     -42.075    -161.535
  N      764.691     -39.693    -163.288
  C      763.861     -38.743    -163.682
  N      762.724     -38.698    -162.907
  O      764.942     -34.683    -167.519
  O      766.079     -36.807    -166.601
  H      759.850     -36.719    -161.613
  H      766.825     -36.505    -167.149
  H      763.773     -42.362    -159.726
  H      764.037     -38.073    -164.509
  H      760.682     -38.363    -162.827
  H      762.203     -36.574    -161.304
  H      761.971     -41.800    -158.362
  H      763.462     -35.817    -163.244
  H      760.745     -40.747    -158.965
  H      760.713     -35.512    -164.628
  H      762.009     -36.035    -166.683
  H      762.552     -34.531    -165.898
  P      763.046     -33.395    -161.887
  C      760.798     -32.552    -160.893
  O      762.051     -33.189    -160.638
  O      763.684     -32.154    -162.387
  O      764.070     -34.491    -161.338
  H      764.917     -34.545    -161.852
  H      760.242     -32.481    -159.982
  H      760.244     -33.127    -161.605
  H      760.970     -31.571    -161.283

 6  7  8  9  10  11  12  13  14  15  26  29  33  34 0
 6-311+G(2d,p)
 ****
 36  38  39  40  41 0
 6-311+G(2d,p)
 ****
 1  2  3  4  5  16  17  18  19  20  21  22  23  24  25 0
 3-21G
 ****
 27  28  30  31  32  35  37  42  43  44  45  46  47 0
 3-21G
 ****
 48  49 0
 3-21G
 ****


