%nproc=1
%NoSave
%Mem=1900MB
#P OB98/GEN NMR

erre ene a

0 1
  C      660.673     140.020    -599.974
  O      661.312     138.739    -599.875
  P      660.572     137.355    -600.224
  C      661.849     136.561    -602.324
  O      660.659     137.131    -601.820
  C      661.594     135.850    -603.658
  O      660.822     134.638    -603.449
  C      660.764     136.638    -604.668
  O      661.502     137.697    -605.264
  C      660.346     135.536    -605.641
  O      661.369     135.291    -606.616
  C      660.203     134.310    -604.711
  N      658.829     133.900    -604.531
  C      658.236     133.182    -605.580
  O      658.857     132.999    -606.629
  N      656.963     132.700    -605.416
  C      656.290     133.005    -604.346
  N      655.031     132.495    -604.231
  C      656.825     133.878    -603.279
  C      658.079     134.279    -603.430
  O      659.187     137.260    -599.678
  O      661.517     136.209    -599.616
  H      660.978     135.420    -599.418
  H      661.415     136.087    -607.187
  H      656.212     134.139    -602.418
  H      658.559     134.902    -602.681
  H      660.786     133.474    -605.108
  H      659.432     135.787    -606.182
  H      659.870     137.040    -604.167
  H      662.558     135.574    -604.099
  H      654.703     131.889    -604.977
  H      662.230     135.819    -601.603
  H      654.441     132.652    -603.432
  H      662.610     137.342    -602.451
  P      661.090     139.191    -604.846
  C      663.048     139.949    -603.310
  O      661.716     139.477    -603.398
  O      659.511     139.089    -604.571
  O      661.395     140.223    -605.888
  H      659.075     139.896    -604.901
  H      663.148     140.546    -602.400
  H      663.305     140.585    -604.167
  H      663.722     139.097    -603.266
  H      661.364     140.786    -599.691
  H      659.825     140.047    -599.323
  H      660.354     140.182    -600.982

 3  4  5  6  7  8  9  10  11  12  13  24  27  28  29  30  32 0
 6-311+G(2d,p)
 ****
 34  35 0
 6-311+G(2d,p)
 ****
 1  2  14  15  16  17  18  19  20  21  22  23  25  26 0
 3-21G
 ****
 31  33  36  37  38  39  40  41  42  43  44  45  46 0
 3-21G
 ****


