%nproc=1
%NoSave
%Mem=1900MB
#P OB98/GEN NMR

erre ene a

0 1
  C      -57.344      34.159     212.467
  O      -56.146      33.384     212.582
  P      -55.083      33.832     213.699
  C      -55.288      31.755     215.260
  O      -54.471      32.514     214.375
  C      -54.592      30.444     215.631
  O      -54.342      29.637     214.464
  C      -53.230      30.650     216.269
  O      -53.368      31.026     217.626
  C      -52.571      29.287     216.071
  O      -52.840      28.406     217.176
  C      -53.240      28.766     214.779
  N      -52.308      28.667     213.663
  C      -51.766      27.399     213.434
  O      -52.064      26.450     214.163
  N      -50.878      27.245     212.395
  C      -50.546      28.271     211.674
  N      -49.658      28.059     210.662
  C      -51.076      29.632     211.904
  C      -51.941      29.760     212.909
  O      -56.009      34.445     214.855
  O      -54.076      34.821     213.212
  H      -52.376      27.570     216.969
  H      -55.539      35.171     215.309
  H      -50.763      30.458     211.280
  H      -52.382      30.720     213.149
  H      -53.671      27.770     214.948
  H      -51.485      29.378     215.991
  H      -52.666      31.416     215.716
  H      -55.245      29.880     216.314
  H      -49.316      27.116     210.536
  H      -56.254      31.543     214.796
  H      -49.326      28.785     210.047
  H      -55.494      32.358     216.153
  P      -52.580      32.330     218.126
  C      -54.980      32.817     218.912
  O      -53.607      33.091     219.101
  O      -52.619      33.263     216.820
  O      -51.193      32.141     218.634
  H      -52.080      34.062     216.962
  H      -55.542      33.224     219.754
  H      -55.156      31.738     218.855
  H      -55.328      33.299     217.993
  H      -57.958      33.753     211.690
  H      -57.092      35.172     212.230
  H      -57.877      34.131     213.394

 3  4  5  6  7  8  9  10  11  12  13  21  23  27  28  29  30  32 0
 6-311+G(2d,p)
 ****
 34  35 0
 6-311+G(2d,p)
 ****
 1  2  14  15  16  17  18  19  20  22  24  25  26 0
 3-21G
 ****
 31  33  36  37  38  39  40  41  42  43  44  45  46 0
 3-21G
 ****


