%nproc=1
%NoSave
%Mem=1900MB
#P OB98/GEN NMR

erre ene a

0 1
  C      -81.112      91.875    -103.649
  O      -82.325      91.595    -104.314
  H      -80.564      90.939    -103.513
  H      -81.311      92.307    -102.666
  H      -80.495      92.559    -104.238
  P      -83.264      92.815    -104.759
  C      -84.771      92.865    -102.668
  O      -83.759      93.533    -103.413
  C      -85.801      93.875    -102.171
  O      -85.146      94.960    -101.477
  C      -86.614      94.526    -103.285
  O      -87.593      93.636    -103.781
  C      -87.157      95.746    -102.556
  O      -88.281      95.398    -101.733
  C      -85.946      96.146    -101.679
  N      -85.150      97.225    -102.269
  C      -85.017      98.378    -101.503
  O      -85.528      98.513    -100.393
  N      -84.305      99.397    -102.078
  C      -83.810      99.403    -103.350
  O      -83.375     100.410    -103.900
  C      -83.916      98.133    -104.083
  C      -84.584      97.122    -103.524
  O      -84.345      92.481    -105.731
  O      -82.233      93.878    -105.371
  H      -82.261      93.828    -106.345
  H      -88.991      95.116    -102.341
  H      -84.243     100.255    -101.551
  H      -83.477      98.077    -105.071
  H      -84.701      96.186    -104.059
  H      -86.282      96.475    -100.688
  H      -87.492      96.525    -103.242
  H      -85.949      94.862    -104.089
  H      -86.461      93.366    -101.456
  H      -84.302      92.371    -101.811
  H      -85.242      92.108    -103.302
  P      -87.758      93.377    -105.351
  C      -89.977      94.627    -105.636
  O      -88.596      94.595    -105.969
  O      -88.269      92.025    -105.720
  O      -86.289      93.614    -105.946
  H      -86.028      92.834    -106.472
  H      -90.436      95.476    -106.099
  H      -90.086      94.697    -104.574
  H      -90.449      93.732    -105.985

 6  7  8  9  10  11  12  13  14  15  16  27  31  32  33  34  35 0
 6-311+G(2d,p)
 ****
 36  37 0
 6-311+G(2d,p)
 ****
 1  2  3  4  5  17  18  19  20  21  22  23  24  25 0
 3-21G
 ****
 26  28  29  30  38  39  40  41  42  43  44  45 0
 3-21G
 ****


