%nproc=1
%NoSave
%Mem=1900MB
#P OB98/GEN NMR

erre ene a

0 1
  C      220.382     -77.942     -48.655
  O      220.458     -76.553     -48.295
  P      220.832     -75.471     -49.424
  C      218.650     -74.478     -50.473
  O      219.666     -74.371     -49.487
  C      218.115     -73.090     -50.832
  O      217.278     -73.157     -52.009
  C      217.241     -72.457     -49.759
  O      218.008     -71.941     -48.685
  C      216.514     -71.381     -50.557
  O      217.327     -70.202     -50.689
  C      216.330     -72.070     -51.924
  N      214.963     -72.536     -52.139
  C      213.995     -71.553     -52.313
  O      214.234     -70.350     -52.235
  N      212.724     -72.004     -52.547
  C      212.323     -73.310     -52.555
  O      211.164     -73.650     -52.751
  C      213.376     -74.298     -52.283
  C      214.626     -73.873     -52.086
  O      220.578     -76.299     -50.775
  O      222.228     -74.945     -49.381
  H      217.719     -70.033     -49.809
  H      221.155     -75.953     -51.482
  H      212.012     -71.308     -52.705
  H      213.096     -75.344     -52.257
  H      215.414     -74.591     -51.885
  H      216.594     -71.379     -52.733
  H      215.576     -71.073     -50.086
  H      216.509     -73.188     -49.395
  H      218.972     -72.442     -51.061
  H      217.831     -75.087     -50.082
  H      219.063     -74.972     -51.358
  P      217.729     -72.568     -47.232
  C      218.435     -75.062     -47.572
  O      218.769     -73.779     -47.089
  O      216.308     -73.265     -47.471
  O      217.749     -71.549     -46.142
  H      216.214     -73.607     -48.376
  H      217.802     -75.006     -48.461
  H      217.914     -75.618     -46.788
  H      219.357     -75.591     -47.829
  H      220.124     -78.520     -47.793
  H      221.330     -78.265     -49.031
  H      219.635     -78.075     -49.410

 3  4  5  6  7  8  9  10  11  12  13  23  28  29  30  31  32 0
 6-311+G(2d,p)
 ****
 33  34 0
 6-311+G(2d,p)
 ****
 1  2  14  15  16  17  18  19  20  21  22  24  25  26 0
 3-21G
 ****
 27  35  36  37  38  39  40  41  42  43  44  45 0
 3-21G
 ****


