%nproc=1
%NoSave
%Mem=1900MB
#P OB98/GEN NMR

erre ene a

0 1
  C       73.793       8.204     -41.848
  O       72.709       9.019     -41.451
  H       74.721       8.782     -41.848
  H       73.894       7.379     -41.138
  H       73.611       7.793     -42.845
  P       72.413      10.316     -42.348
  C       73.899      11.695     -40.716
  O       73.638      11.314     -42.060
  C       73.437      13.131     -40.501
  O       73.525      13.476     -39.099
  C       74.281      14.166     -41.236
  O       73.906      14.308     -42.595
  C       73.952      15.417     -40.440
  O       72.651      15.904     -40.814
  C       73.925      14.871     -39.004
  N       76.471      16.933     -35.071
  C       75.174      17.003     -35.442
  N       74.571      16.407     -36.490
  C       75.447      15.667     -37.186
  C       76.797      15.494     -36.925
  C       77.314      16.174     -35.810
  N       78.641      16.131     -35.447
  N       77.374      14.677     -37.877
  C       76.386      14.349     -38.684
  N       75.208      14.949     -38.327
  O       71.189      11.026     -41.600
  O       72.149      10.063     -43.793
  H       72.006      15.217     -40.560
  H       70.782      11.699     -42.178
  H       74.539      17.623     -34.816
  H       76.473      13.694     -39.541
  H       73.192      15.385     -38.371
  H       74.663      16.228     -40.615
  H       75.352      13.953     -41.139
  H       72.383      13.202     -40.795
  H       74.975      11.622     -40.527
  H       78.942      16.767     -34.725
  H       79.301      15.692     -36.071
  H       73.368      11.021     -40.037
  P       75.064      14.176     -43.701
  C       74.882      16.744     -44.051
  O       75.736      15.628     -43.827
  O       74.242      14.030     -45.064
  O       76.007      13.040     -43.482
  H       74.723      13.470     -45.702
  H       75.470      17.636     -44.112
  H       74.187      16.829     -43.242
  H       74.347      16.606     -44.967

 6  7  8  9  10  11  12  13  14  15  25  28  32  33  34  35 0
 6-311+G(2d,p)
 ****
 36  39  40 0
 6-311+G(2d,p)
 ****
 1  2  3  4  5  16  17  18  19  20  21  22  23  24 0
 3-21G
 ****
 26  27  29  30  31  37  38  41  42  43  44  45  46  47 0
 3-21G
 ****
 48 0
 3-21G
 ****


