%nproc=1
%NoSave
%Mem=1900MB
#P OB98/GEN NMR

erre ene a

0 1
  C      354.818    -634.808     439.153
  O      355.088    -633.422     439.102
  P      355.315    -632.529     440.405
  C      353.972    -631.937     442.541
  O      353.938    -632.486     441.240
  C      352.657    -632.124     443.314
  O      352.471    -633.531     443.594
  C      352.724    -631.427     444.678
  O      352.446    -630.040     444.773
  C      351.931    -632.307     445.628
  O      350.598    -631.842     445.821
  C      351.929    -633.671     444.923
  N      351.742    -638.306     446.984
  C      350.853    -637.702     446.103
  N      349.697    -638.369     445.894
  N      351.097    -636.563     445.498
  C      352.267    -635.980     445.878
  C      353.224    -636.484     446.732
  C      352.967    -637.761     447.356
  O      353.678    -638.281     448.218
  N      354.236    -635.582     446.946
  C      353.880    -634.530     446.239
  N      352.665    -634.707     445.616
  O      356.070    -631.251     440.212
  O      356.233    -633.499     441.312
  H      350.635    -630.925     446.153
  H      356.856    -632.939     441.814
  H      351.476    -639.138     447.481
  H      354.428    -633.587     446.188
  H      350.889    -634.037     444.799
  H      352.399    -632.331     446.617
  H      349.418    -639.151     446.445
  H      353.773    -631.498     445.022
  H      348.965    -637.873     445.388
  H      351.794    -631.826     442.712
  H      354.198    -630.862     442.445
  H      354.789    -632.380     443.120
  P      353.071    -629.010     445.830
  C      353.540    -629.754     448.238
  O      352.540    -629.404     447.291
  O      352.316    -627.633     445.543
  O      354.553    -628.825     445.721
  H      352.851    -626.878     445.868
  H      353.069    -630.281     449.074
  H      354.019    -628.855     448.620
  H      354.302    -630.407     447.776
  H      354.704    -635.186     438.158
  H      353.916    -634.976     439.704
  H      355.629    -635.312     439.636

 3  4  5  6  7  8  9  10  11  12  23  26  30  31 0
 6-311+G(2d,p)
 ****
 33  35  36  37  38 0
 6-311+G(2d,p)
 ****
 1  2  13  14  15  16  17  18  19  20  21  22  24  25 0
 3-21G
 ****
 27  28  29  32  34  39  40  41  42  43  44  45  46  47  48  49 0
 3-21G
 ****


