%nproc=1
%NoSave
%Mem=1900MB
#P OB98/GEN NMR

erre ene a

0 1
  C      -42.125    -298.201     120.782
  O      -41.575    -297.537     119.660
  H      -43.105    -297.770     120.997
  H      -41.476    -298.065     121.652
  H      -42.244    -299.267     120.569
  P      -40.134    -298.041     119.169
  C      -38.700    -296.029     118.334
  O      -39.672    -297.015     118.025
  C      -38.713    -294.916     117.278
  O      -38.699    -295.530     115.955
  C      -39.956    -294.014     117.338
  O      -39.587    -292.714     116.845
  C      -40.877    -294.694     116.336
  O      -41.955    -293.853     115.989
  C      -39.860    -295.033     115.248
  N      -40.949    -295.913     110.333
  C      -40.429    -294.837     110.959
  N      -40.156    -294.681     112.269
  C      -40.455    -295.800     112.955
  C      -40.982    -296.976     112.452
  C      -41.240    -297.011     111.071
  N      -41.778    -298.103     110.431
  N      -41.162    -297.901     113.466
  C      -40.745    -297.290     114.558
  N      -40.318    -296.017     114.298
  O      -40.465    -299.384     118.368
  O      -39.130    -298.265     120.251
  H      -42.574    -294.314     115.382
  H      -40.353    -300.157     118.953
  H      -40.202    -293.984     110.319
  H      -40.741    -297.717     115.553
  H      -39.553    -294.143     114.687
  H      -41.315    -295.603     116.761
  H      -40.378    -293.920     118.343
  H      -37.790    -294.331     117.364
  H      -37.713    -296.507     118.359
  H      -38.917    -295.600     119.317
  H      -41.944    -298.043     109.439
  H      -42.014    -298.923     110.972
  P      -39.704    -291.446     117.826
  C      -39.473    -289.886     115.736
  O      -39.098    -290.161     117.081
  O      -38.568    -291.760     118.917
  O      -41.029    -291.256     118.487
  H      -38.808    -291.343     119.767
  H      -38.978    -288.998     115.402
  H      -40.532    -289.745     115.683
  H      -39.191    -290.708     115.112

 6  7  8  9  10  11  12  13  14  15  25  28  32  33  34  35 0
 6-311+G(2d,p)
 ****
 36  37  40 0
 6-311+G(2d,p)
 ****
 1  2  3  4  5  16  17  18  19  20  21  22  23  24 0
 3-21G
 ****
 26  27  29  30  31  38  39 41  42  43  44  45  46  47  48 0
 3-21G
 ****


