%nproc=1
%NoSave
%Mem=1900MB
#P OB98/GEN NMR

erre ene a

0 1
  C     -141.135     113.063     131.250
  O     -139.767     112.713     131.179
  H     -141.319     113.554     132.209
  H     -141.762     112.172     131.187
  H     -141.392     113.760     130.446
  P     -139.244     111.914     129.893
  C     -140.095     109.728     130.971
  O     -138.996     110.397     130.358
  C     -139.719     108.275     131.284
  O     -139.402     107.621     130.030
  C     -138.494     108.170     132.204
  O     -138.724     107.357     133.352
  C     -137.377     107.751     131.255
  O     -136.319     107.040     131.864
  C     -138.124     106.974     130.163
  N     -137.428     106.937     128.882
  C     -136.400     106.009     128.739
  O     -136.051     105.200     129.599
  N     -135.758     106.018     127.527
  C     -136.029     106.845     126.479
  O     -135.422     106.801     125.414
  C     -137.109     107.819     126.697
  C     -137.748     107.822     127.870
  O     -138.099     112.538     129.166
  O     -140.539     111.795     128.957
  H     -135.887     106.497     131.174
  H     -140.481     112.449     128.235
  H     -135.020     105.342     127.408
  H     -137.346     108.499     125.891
  H     -138.550     108.527     128.065
  H     -138.296     105.944     130.478
  H     -136.942     108.657     130.814
  H     -138.244     109.149     132.633
  H     -140.591     107.768     131.711
  H     -140.939     109.761     130.275
  H     -140.374     110.246     131.896
  P     -139.407     107.865     134.702
  C     -137.351     106.828     135.957
  O     -138.750     107.070     135.925
  O     -140.895     107.958     134.677
  O     -138.827     109.363     134.870
  H     -139.533     109.888     135.303
  H     -137.103     106.287     136.846
  H     -136.827     107.761     135.950
  H     -137.069     106.254     135.099

 6  7  8  9  10  11  12  13  14  15  16  26  31  32  33  34  35 0
 6-311+G(2d,p)
 ****
 36  37 0
 6-311+G(2d,p)
 ****
 1  2  3  4  5  17  18  19  20  21  22  23  24  25 0
 3-21G
 ****
 27  28  29  30  38  39  40  41  42  43  44  45 0
 3-21G
 ****


