%nproc=1
%NoSave
%Mem=1900MB
#P OB98/GEN NMR

erre ene a

0 1
  C     -460.124      32.958      18.739
  O     -460.695      31.667      18.652
  H     -460.923      33.685      18.906
  H     -459.617      33.204      17.803
  H     -459.417      33.012      19.572
  P     -459.690      30.418      18.642
  C     -461.186      29.056      20.274
  O     -460.570      29.123      18.997
  C     -462.637      28.596      20.132
  O     -463.353      29.570      19.320
  C     -462.794      27.229      19.453
  O     -463.896      26.548      20.061
  C     -463.162      27.595      18.027
  O     -463.856      26.570      17.330
  C     -464.012      28.849      18.260
  N     -464.138      29.674      17.061
  C     -465.363      29.660      16.402
  O     -466.368      29.075      16.801
  N     -465.408      30.365      15.226
  C     -464.372      31.042      14.651
  O     -464.471      31.637      13.585
  C     -463.102      31.011      15.390
  C     -463.045      30.336      16.541
  O     -458.818      30.648      19.963
  O     -458.849      30.281      17.416
  H     -458.032      31.189      19.762
  H     -464.715      26.435      17.783
  H     -466.288      30.366      14.736
  H     -462.255      31.527      14.958
  H     -462.116      30.278      17.100
  H     -465.008      28.571      18.624
  H     -462.257      27.838      17.459
  H     -461.900      26.600      19.498
  H     -463.106      28.597      21.122
  H     -461.170      30.048      20.737
  H     -460.626      28.362      20.908
  P     -463.614      25.088      20.668
  C     -465.601      24.786      22.348
  O     -465.052      24.504      21.070
  O     -462.930      25.461      22.063
  O     -462.791      24.230      19.766
  H     -463.298      26.267      22.463
  H     -466.558      24.317      22.436
  H     -465.710      25.844      22.464
  H     -464.948      24.410      23.108

 6  7  8  9  10  11  12  13  14  15  16  27  31  32  33  34  35 0
 6-311+G(2d,p)
 ****
 36  37 0
 6-311+G(2d,p)
 ****
 1  2  3  4  5  17  18  19  20  21  22  23  24  25 0
 3-21G
 ****
 26  28  29  30  38  39  40  41  42  43  44  45 0
 3-21G
 ****


