%nproc=1
%NoSave
%Mem=1900MB
#P OB98/GEN NMR

erre ene a

0 1
  C      274.952     150.979     541.248
  O      275.041     152.381     541.380
  H      275.055     150.528     542.238
  H      275.764     150.618     540.609
  H      273.991     150.680     540.825
  P      274.569     153.301     540.156
  C      275.724     154.365     538.107
  O      275.794     153.372     539.118
  C      276.379     153.880     536.812
  O      277.818     153.874     536.964
  C      275.962     152.433     536.509
  O      275.970     152.152     535.112
  C      277.056     151.620     537.184
  O      277.175     150.301     536.659
  C      278.275     152.505     536.942
  N      282.210     149.669     538.505
  C      281.298     149.419     537.497
  N      281.438     148.249     536.828
  N      280.324     150.237     537.179
  C      280.262     151.330     537.977
  C      281.088     151.672     539.023
  C      282.181     150.778     539.335
  O      283.010     150.938     540.225
  N      280.693     152.851     539.610
  C      279.625     153.218     538.928
  N      279.332     152.331     537.915
  O      274.558     154.782     540.776
  O      273.243     152.951     539.551
  H      277.589     150.372     535.780
  H      273.942     155.351     540.281
  H      282.944     149.013     538.692
  H      279.044     154.106     539.116
  H      278.705     152.308     535.950
  H      276.803     151.525     538.249
  H      282.054     147.521     537.149
  H      274.979     152.195     536.914
  H      280.623     147.923     536.301
  H      276.150     154.562     535.989
  H      276.253     155.246     538.485
  H      274.684     154.655     537.928
  P      274.553     152.092     534.359
  C      273.327     150.344     532.830
  O      274.409     150.639     533.702
  O      274.743     153.073     533.111
  O      273.400     152.496     535.223
  H      274.273     153.908     533.266
  H      273.404     149.330     532.496
  H      273.360     151.001     531.986
  H      272.402     150.479     533.351

 6  7  8  9  10  11  12  13  14  15  26  29  33  34 0
 6-311+G(2d,p)
 ****
 36  38  39  40  41 0
 6-311+G(2d,p)
 ****
 1  2  3  4  5  16  17  18  19  20  21  22  23  24  25 0
 3-21G
 ****
 27  28  30  31  32  35  37  42  43  44  45  46  47 0
 3-21G
 ****
 48  49 0
 3-21G
 ****


