%nproc=1
%NoSave
%Mem=1900MB
#P OB98/GEN NMR

erre ene a

0 1
  C      133.351    -313.834    -102.656
  O      131.937    -313.887    -102.700
  P      131.146    -313.235    -103.932
  C      130.567    -315.572    -104.932
  O      131.172    -314.309    -105.122
  C      129.037    -315.465    -104.978
  O      128.670    -314.931    -106.276
  C      128.303    -316.796    -104.854
  O      126.942    -316.532    -104.497
  C      128.358    -317.319    -106.274
  O      127.369    -318.315    -106.527
  C      128.228    -316.019    -107.116
  N      129.042    -316.087    -108.344
  C      128.623    -316.976    -109.331
  O      127.586    -317.632    -109.246
  N      129.483    -317.151    -110.384
  C      130.713    -316.565    -110.502
  O      131.583    -316.958    -111.268
  C      130.988    -315.469    -109.560
  C      130.163    -315.300    -108.522
  O      132.146    -312.091    -104.427
  O      129.801    -312.692    -103.596
  H      127.454    -318.565    -107.474
  H      131.892    -311.228    -104.041
  H      129.249    -317.900    -111.023
  H      131.882    -314.878    -109.713
  H      130.371    -314.529    -107.780
  H      127.185    -315.842    -107.410
  H      129.342    -317.778    -106.447
  H      128.751    -317.496    -104.144
  H      128.699    -314.759    -104.212
  H      130.897    -315.986    -103.975
  H      130.902    -316.272    -105.704
  P      126.149    -317.661    -103.679
  C      126.781    -316.514    -101.467
  O      126.816    -317.714    -102.221
  O      125.995    -318.982    -104.360
  O      124.732    -316.970    -103.393
  H      124.069    -317.652    -103.170
  H      126.757    -316.765    -100.402
  H      125.892    -315.918    -101.707
  H      127.677    -315.930    -101.676
  H      133.699    -314.317    -101.767
  H      133.670    -312.813    -102.655
  H      133.753    -314.332    -103.513

 3  4  5  6  7  8  9  10  11  12  13  23  28  29  30  31  32 0
 6-311+G(2d,p)
 ****
 33  34 0
 6-311+G(2d,p)
 ****
 1  2  14  15  16  17  18  19  20  21  22  24  25  26  27 0
 3-21G
 ****
 35  36  37  38  39  40  41  42  43  44  45 0
 3-21G
 ****


