%nproc=1
%NoSave
%Mem=1900MB
#P OB98/GEN NMR

erre ene a

0 1
  C      -31.992      65.552     354.244
  O      -30.977      66.483     354.607
  P      -31.105      67.574     355.762
  C      -28.551      67.757     356.351
  O      -29.728      68.382     355.860
  C      -27.352      68.720     356.299
  O      -26.858      68.775     354.926
  C      -27.732      70.150     356.701
  O      -26.765      70.782     357.534
  C      -28.033      70.809     355.366
  O      -27.979      72.227     355.409
  C      -27.026      70.128     354.442
  N      -27.891      72.877     350.228
  C      -27.616      73.305     351.513
  N      -27.584      74.640     351.712
  N      -27.410      72.498     352.517
  C      -27.551      71.192     352.200
  C      -27.833      70.644     350.969
  C      -28.008      71.545     349.851
  O      -28.231      71.219     348.689
  N      -27.884      69.274     351.031
  C      -27.655      68.996     352.298
  N      -27.438      70.129     353.047
  O      -31.698      67.100     357.048
  O      -32.115      68.670     355.142
  H      -28.150      72.559     354.510
  H      -32.615      69.040     355.898
  H      -28.015      73.545     349.486
  H      -27.621      68.000     352.723
  H      -26.048      70.616     354.464
  H      -29.058      70.536     355.085
  H      -27.853      75.314     351.010
  H      -28.639      70.153     357.315
  H      -27.605      74.943     352.686
  H      -26.551      68.320     356.932
  H      -28.364      66.899     355.694
  H      -28.703      67.373     357.359
  P      -26.979      71.484     358.952
  C      -25.063      70.162     360.025
  O      -25.594      71.444     359.752
  O      -27.898      70.476     359.781
  O      -27.616      72.836     358.891
  H      -28.745      70.912     360.012
  H      -24.283      70.259     360.788
  H      -24.619      69.748     359.117
  H      -25.841      69.490     360.397
  H      -31.642      64.938     353.440
  H      -32.868      66.082     353.933
  H      -32.229      64.936     355.086

 3  4  5  6  7  8  9  10  11  12  23  26  30  31 0
 6-311+G(2d,p)
 ****
 33  35  36  37  38 0
 6-311+G(2d,p)
 ****
 1  2  13  14  15  16  17  18  19  20  21  22  24  25 0
 3-21G
 ****
 27  28  29  32  34  39  40  41  42  43  44  45  46  47  48  49 0
 3-21G
 ****


