%nproc=1
%NoSave
%Mem=1900MB
#P OB98/GEN NMR

erre ene a

0 1
  C      205.706     -90.947    -364.810
  O      206.309     -89.673    -364.891
  H      204.774     -90.935    -365.387
  H      205.469     -91.182    -363.765
  H      206.369     -91.710    -365.224
  P      207.694     -89.473    -364.101
  C      206.782     -87.744    -362.399
  O      207.296     -89.053    -362.602
  C      207.083     -87.269    -360.972
  O      206.313     -88.071    -360.032
  C      208.567     -87.384    -360.579
  O      208.920     -86.256    -359.766
  C      208.598     -88.641    -359.723
  O      209.716     -88.661    -358.838
  C      207.241     -88.539    -359.028
  N      208.112     -91.827    -355.307
  C      208.683     -90.588    -355.567
  N      209.639     -90.171    -354.712
  N      208.349     -89.848    -356.591
  C      207.361     -90.378    -357.347
  C      206.728     -91.593    -357.207
  C      207.123     -92.422    -356.083
  O      206.669     -93.538    -355.815
  N      205.806     -91.789    -358.208
  C      205.887     -90.698    -358.954
  N      206.818     -89.812    -358.471
  O      208.285     -88.114    -364.719
  O      208.659     -90.603    -364.200
  H      209.517     -88.048    -358.098
  H      209.260     -88.121    -364.700
  H      208.412     -92.373    -354.511
  H      205.309     -90.507    -359.847
  H      207.246     -87.817    -358.200
  H      208.648     -89.532    -360.361
  H      209.928     -90.682    -353.887
  H      209.243     -87.450    -361.438
  H      210.063     -89.263    -354.882
  H      206.730     -86.232    -360.862
  H      205.692     -87.758    -362.552
  H      207.235     -87.059    -363.121
  P      209.306     -84.893    -360.520
  C      211.359     -85.779    -361.835
  O      210.045     -85.250    -361.901
  O      210.489     -84.305    -359.605
  O      208.176     -83.923    -360.629
  H      210.166     -83.528    -359.106
  H      211.718     -85.966    -362.825
  H      211.348     -86.694    -361.281
  H      212.003     -85.076    -361.349

 6  7  8  9  10  11  12  13  14  15  26  29  33  34 0
 6-311+G(2d,p)
 ****
 36  38  39  40  41 0
 6-311+G(2d,p)
 ****
 1  2  3  4  5  16  17  18  19  20  21  22  23  24  25 0
 3-21G
 ****
 27  28  30  31  32  35  37  42  43  44  45  46  47 0
 3-21G
 ****
 48  49 0
 3-21G
 ****


