%nproc=1
%NoSave
%Mem=1900MB
#P OB98/GEN NMR

erre ene a

0 1
  C      503.254     634.030     -77.327
  O      502.790     632.719     -76.972
  P      503.904     631.596     -76.717
  C      504.457     629.995     -74.744
  O      503.474     630.768     -75.419
  C      504.017     629.699     -73.296
  O      504.095     630.884     -72.487
  C      502.583     629.221     -73.178
  O      502.456     627.843     -73.493
  C      502.323     629.456     -71.688
  O      502.847     628.354     -70.920
  C      503.129     630.735     -71.407
  N      500.976     634.218     -68.406
  C      501.752     633.122     -68.084
  N      502.020     632.956     -66.775
  N      502.238     632.271     -68.960
  C      501.906     632.605     -70.252
  C      501.150     633.655     -70.692
  C      500.596     634.559     -69.707
  O      499.873     635.519     -69.943
  N      501.042     633.656     -72.054
  C      501.776     632.619     -72.447
  N      502.310     631.938     -71.375
  O      505.170     632.444     -76.214
  O      504.236     630.782     -77.927
  H      502.896     628.657     -69.988
  H      505.995     631.981     -76.420
  H      500.620     634.829     -67.696
  H      501.952     632.320     -73.474
  H      503.686     630.674     -70.472
  H      501.245     629.534     -71.451
  H      501.744     633.601     -66.050
  H      501.901     629.840     -73.780
  H      502.618     632.174     -66.517
  H      504.703     628.954     -72.885
  H      505.408     630.538     -74.720
  H      504.636     629.070     -75.296
  P      501.561     627.459     -74.777
  C      501.801     625.625     -76.599
  O      502.131     626.050     -75.295
  O      502.045     628.508     -75.878
  O      500.083     627.527     -74.539
  H      501.319     628.685     -76.516
  H      501.859     626.439     -77.318
  H      500.780     625.213     -76.602
  H      502.480     624.838     -76.904
  H      502.415     634.679     -77.468
  H      503.819     633.975     -78.234
  H      503.874     634.413     -76.544

 3  4  5  6  7  8  9  10  11  12  23  26  30  31  33  0
 6-311+G(2d,p)
 ****
 35  36  37  38 0
 6-311+G(2d,p)
 ****
 1  2  13  14  15  16  17  18  19  20  21  22  24  25  27  28  29 0
 3-21G
 ****
 32  34  39  40  41  42  43  44  45  46  47  48  49 0
 3-21G
 ****


