%nproc=1
%NoSave
%Mem=1900MB
#P OB98/GEN NMR

erre ene a

0 1
  C      519.519    -381.413    -175.359
  O      519.097    -382.733    -175.647
  H      519.294    -381.198    -174.310
  H      518.978    -380.702    -175.987
  H      520.597    -381.310    -175.519
  P      519.496    -383.315    -177.092
  C      517.117    -384.087    -177.897
  O      518.183    -383.158    -177.999
  C      516.381    -384.213    -179.233
  O      515.785    -382.926    -179.553
  C      517.284    -384.616    -180.401
  O      516.538    -385.455    -181.282
  C      517.573    -383.290    -181.091
  O      517.943    -383.469    -182.458
  C      516.253    -382.537    -180.866
  N      516.413    -381.092    -180.974
  C      515.874    -380.483    -182.108
  O      515.315    -381.161    -182.973
  N      516.019    -379.127    -182.275
  C      516.704    -378.446    -181.408
  N      516.833    -377.108    -181.635
  C      517.323    -379.050    -180.212
  C      517.132    -380.364    -180.057
  O      519.572    -384.886    -176.798
  O      520.741    -382.733    -177.667
  H      518.117    -382.587    -182.853
  H      518.831    -385.217    -176.263
  H      517.894    -378.444    -179.522
  H      517.548    -380.890    -179.203
  H      515.497    -382.858    -181.596
  H      518.397    -382.775    -180.585
  H      518.188    -385.133    -180.077
  H      515.556    -384.923    -179.109
  H      516.410    -376.741    -182.480
  H      516.414    -383.772    -177.122
  H      517.385    -376.492    -181.059
  H      517.540    -385.052    -177.603
  P      516.898    -387.010    -181.381
  C      518.587    -386.872    -183.335
  O      518.381    -387.179    -181.960
  O      515.861    -387.874    -182.025
  O      517.079    -387.423    -179.837
  H      516.667    -388.306    -179.714
  H      519.616    -387.028    -183.585
  H      518.327    -385.850    -183.515
  H      517.973    -387.508    -183.938

 6  7  8  9  10  11  12  13  14  15  16  26  30  31  32  33  35 0
 6-311+G(2d,p)
 ****
 37  38 0
 6-311+G(2d,p)
 ****
 1  2  3  4  5  17  18  19  20  21  22  23  24  25 0
 3-21G
 ****
 27  28  29  34  36  39  40  41  42  43  44  45  46 0
 3-21G
 ****


