%nproc=1
%NoSave
%Mem=1900MB
#P OB98/GEN NMR

erre ene a

0 1
  C     -164.127     604.634    -456.305
  O     -164.451     603.767    -455.218
  P     -164.877     604.455    -453.825
  C     -162.903     603.261    -452.642
  O     -163.534     604.501    -452.949
  C     -161.604     603.499    -451.857
  O     -160.750     604.387    -452.601
  C     -161.786     604.172    -450.494
  O     -162.191     603.245    -449.501
  C     -160.400     604.705    -450.241
  O     -159.576     603.655    -449.706
  C     -159.926     605.108    -451.649
  N     -158.676     609.766    -450.115
  C     -158.345     608.542    -449.571
  N     -157.554     608.548    -448.477
  N     -158.763     607.397    -450.054
  C     -159.521     607.533    -451.170
  C     -159.918     608.693    -451.797
  C     -159.479     609.954    -451.224
  O     -159.807     611.081    -451.631
  N     -160.665     608.432    -452.914
  C     -160.683     607.125    -452.992
  N     -160.043     606.526    -451.933
  O     -165.740     603.307    -453.113
  O     -165.634     605.727    -453.945
  H     -158.692     604.027    -449.547
  H     -166.370     603.711    -452.480
  H     -158.315     610.602    -449.710
  H     -161.179     606.551    -453.776
  H     -158.881     604.793    -451.815
  H     -160.387     605.527    -449.506
  H     -157.095     609.399    -448.131
  H     -162.509     605.011    -450.576
  H     -157.273     607.645    -448.101
  H     -161.085     602.545    -451.740
  H     -162.654     602.729    -453.559
  H     -163.588     602.653    -452.049
  P     -162.745     603.864    -448.124
  C     -161.014     602.656    -446.615
  O     -161.483     603.884    -447.120
  O     -163.683     602.707    -447.544
  O     -163.476     605.156    -448.285
  H     -164.375     603.087    -446.960
  H     -161.083     601.841    -447.360
  H     -161.589     602.379    -445.729
  H     -159.953     602.752    -446.336
  H     -163.864     604.049    -457.162
  H     -163.301     605.256    -456.031
  H     -164.973     605.246    -456.537

 3  4  5  6  7  8  9  10  11  12  23  26  30  31  33  0
 6-311+G(2d,p)
 ****
 35  36  37  38 0
 6-311+G(2d,p)
 ****
 1  2  13  14  15  16  17  18  19  20  21  22  24  25  27  28  29 0
 3-21G
 ****
 32  34  39  40  41  42  43  44  45  46  47  48  49 0
 3-21G
 ****


