%nproc=1
%NoSave
%Mem=1900MB
#P OB98/GEN NMR

erre ene a

0 1
  C      364.883    -125.474     -52.765
  O      364.868    -126.100     -51.474
  P      365.788    -127.362     -51.107
  C      368.169    -126.419     -50.799
  O      366.987    -126.886     -50.156
  C      369.425    -127.085     -50.226
  O      370.542    -126.919     -51.120
  C      369.891    -126.527     -48.887
  O      369.075    -126.986     -47.826
  C      371.334    -127.024     -48.850
  O      371.395    -128.387     -48.393
  C      371.747    -126.924     -50.332
  N      372.569    -125.753     -50.604
  C      373.745    -125.624     -49.860
  O      374.019    -126.445     -48.983
  N      374.572    -124.555     -50.112
  C      374.216    -123.656     -50.975
  N      375.079    -122.624     -51.186
  C      372.943    -123.703     -51.713
  C      372.176    -124.769     -51.484
  O      366.231    -128.154     -52.295
  O      364.885    -128.267     -50.141
  H      370.910    -128.921     -49.048
  H      365.125    -129.204     -50.265
  H      372.669    -122.917     -52.403
  H      371.226    -124.888     -51.992
  H      372.303    -127.819     -50.636
  H      371.966    -126.433     -48.180
  H      369.889    -125.429     -48.925
  H      369.222    -128.161     -50.140
  H      375.945    -122.626     -50.667
  H      368.235    -125.335     -50.647
  H      374.897    -121.873     -51.836
  H      368.089    -126.619     -51.871
  P      368.189    -125.945     -46.993
  C      365.984    -125.650     -48.273
  O      366.650    -126.326     -47.221
  O      368.526    -124.505     -47.195
  O      368.433    -126.378     -45.468
  H      368.378    -125.586     -44.902
  H      365.123    -126.249     -48.586
  H      366.647    -125.501     -49.132
  H      365.630    -124.680     -47.914
  H      364.191    -124.658     -52.774
  H      364.602    -126.188     -53.511
  H      365.867    -125.109     -52.973

 3  4  5  6  7  8  9  10  11  12  13  23  27  28  29  30  32 0
 6-311+G(2d,p)
 ****
 34  35 0
 6-311+G(2d,p)
 ****
 1  2  14  15  16  17  18  19  20  21  22  24  25  26 0
 3-21G
 ****
 31  33  36  37  38  39  40  41  42  43  44  45  46 0
 3-21G
 ****


