%nproc=1
%NoSave
%Mem=1900MB
#P OB98/GEN NMR

erre ene a

0 1
  C      275.968     349.460     -99.030
  O      274.584     349.193     -98.990
  H      276.441     348.750     -99.711
  H      276.399     349.331     -98.032
  H      276.166     350.472     -99.387
  P      273.607     350.275     -98.328
  C      272.265     350.469    -100.525
  O      272.220     350.210     -99.129
  C      271.210     349.640    -101.267
  O      271.689     348.276    -101.394
  C      269.892     349.579    -100.487
  O      268.768     349.405    -101.346
  C      270.064     348.331     -99.637
  O      268.823     347.766     -99.212
  C      270.861     347.430    -100.577
  N      271.588     342.525     -99.401
  C      270.492     343.129     -99.984
  N      269.455     342.317    -100.299
  N      270.410     344.413    -100.217
  C      271.489     345.110     -99.786
  C      272.625     344.626     -99.174
  C      272.717     343.198     -98.953
  O      273.653     342.616     -98.419
  N      273.500     345.640     -98.874
  C      272.897     346.732     -99.297
  N      271.686     346.459     -99.881
  O      274.216     351.677     -98.809
  O      273.487     350.210     -96.836
  H      268.314     347.547    -100.012
  H      273.937     352.391     -98.210
  H      271.610     341.529     -99.271
  H      273.298     347.735     -99.220
  H      270.191     346.875    -101.245
  H      270.619     348.604     -98.736
  H      269.402     341.370     -99.958
  H      269.732     350.456     -99.865
  H      268.548     342.772    -100.431
  H      271.077     350.024    -102.285
  H      273.269     350.207    -100.864
  H      272.125     351.534    -100.719
  P      267.300     349.545    -100.721
  C      266.324     351.646    -102.000
  O      266.330     350.255    -101.772
  O      267.480     350.637     -99.568
  O      266.727     348.263    -100.197
  H      267.312     350.240     -98.694
  H      265.593     351.882    -102.745
  H      267.291     351.956    -102.338
  H      266.084     352.156    -101.090

 6  7  8  9  10  11  12  13  14  15  26  29  33  34 0
 6-311+G(2d,p)
 ****
 36  38  39  40  41 0
 6-311+G(2d,p)
 ****
 1  2  3  4  5  16  17  18  19  20  21  22  23  24  25 0
 3-21G
 ****
 27  28  30  31  32  35  37  42  43  44  45  46  47 0
 3-21G
 ****
 48  49 0
 3-21G
 ****


