%nproc=1
%NoSave
%Mem=1900MB
#P OB98/GEN NMR

erre ene a

0 1
  C      -35.704     420.051    -110.516
  O      -36.226     418.880    -111.116
  P      -35.214     417.655    -111.354
  C      -33.175     417.281    -112.922
  O      -34.371     418.011    -112.673
  C      -32.511     417.730    -114.223
  O      -31.998     419.071    -114.052
  C      -31.357     416.836    -114.677
  O      -31.394     416.758    -116.105
  C      -30.123     417.612    -114.258
  O      -28.985     417.258    -115.042
  C      -30.607     419.061    -114.433
  N      -29.826     420.005    -113.641
  C      -28.856     420.747    -114.319
  O      -28.638     420.534    -115.510
  N      -28.121     421.672    -113.618
  C      -28.268     421.770    -112.334
  N      -27.521     422.704    -111.686
  C      -29.195     420.917    -111.562
  C      -29.947     420.083    -112.273
  O      -36.184     416.481    -111.844
  O      -34.415     417.266    -110.153
  H      -29.180     417.481    -115.980
  H      -35.849     415.610    -111.555
  H      -29.254     421.013    -110.486
  H      -30.671     419.433    -111.796
  H      -30.549     419.361    -115.487
  H      -29.891     417.407    -113.205
  H      -31.406     415.829    -114.250
  H      -33.283     417.775    -115.002
  H      -26.884     423.265    -112.236
  H      -33.421     416.220    -113.010
  H      -27.570     422.850    -110.688
  H      -32.492     417.401    -112.075
  P      -31.532     415.304    -116.768
  C      -30.042     413.213    -116.806
  O      -30.118     414.592    -116.504
  O      -31.429     415.658    -118.329
  O      -32.759     414.505    -116.476
  H      -31.562     414.848    -118.858
  H      -29.001     412.891    -116.712
  H      -30.381     413.022    -117.825
  H      -30.652     412.643    -116.097
  H      -36.482     420.779    -110.419
  H      -34.920     420.446    -111.128
  H      -35.315     419.813    -109.548

 3  4  5  6  7  8  9  10  11  12  13  21  23  27  28  29  30  32 0
 6-311+G(2d,p)
 ****
 34  35 0
 6-311+G(2d,p)
 ****
 1  2  14  15  16  17  18  19  20  22  24  25  26 0
 3-21G
 ****
 31  33  36  37  38  39  40  41  42  43  44  45  46 0
 3-21G
 ****


