%nproc=1
%NoSave
%Mem=1900MB
#P OB98/GEN NMR

erre ene a

0 1
  C      387.643    -130.367     791.041
  O      387.417    -131.715     790.667
  H      388.681    -130.110     790.815
  H      387.480    -130.240     792.115
  H      386.988    -129.695     790.477
  P      385.942    -132.321     790.797
  C      386.005    -132.763     788.261
  O      385.268    -132.203     789.339
  C      385.358    -132.395     786.926
  O      384.231    -133.281     786.688
  C      384.848    -130.948     786.868
  O      385.085    -130.445     785.553
  C      383.350    -131.097     787.094
  O      382.602    -130.028     786.507
  C      383.068    -132.453     786.455
  N      378.065    -131.975     786.992
  C      378.956    -131.195     786.287
  N      378.461    -130.120     785.637
  N      380.247    -131.464     786.212
  C      380.611    -132.572     786.887
  C      379.816    -133.425     787.631
  C      378.404    -133.116     787.714
  O      377.561    -133.759     788.338
  N      380.554    -134.442     788.198
  C      381.790    -134.198     787.806
  N      381.880    -133.076     787.018
  O      385.112    -131.759     791.909
  O      386.182    -133.892     790.966
  H      381.661    -130.208     786.693
  H      386.108    -134.149     791.906
  H      377.093    -131.718     787.020
  H      382.658    -134.798     788.058
  H      382.912    -132.385     785.363
  H      383.145    -131.116     788.171
  H      377.484    -129.874     785.647
  H      385.309    -130.294     787.618
  H      379.102    -129.554     785.097
  H      386.088    -132.593     786.124
  H      386.015    -133.857     788.373
  H      387.035    -132.403     788.295
  P      386.414    -129.563     785.309
  C      387.165    -131.471     783.744
  O      387.557    -130.539     784.752
  O      386.809    -128.657     786.427
  O      386.017    -128.724     783.982
  H      386.500    -127.861     784.020
  H      388.010    -132.061     783.456
  H      386.794    -130.940     782.892
  H      386.397    -132.110     784.128

 6  7  8  9  10  11  12  13  14  15  26  29  33  34 0
 6-311+G(2d,p)
 ****
 36  38  39  40  41 0
 6-311+G(2d,p)
 ****
 1  2  3  4  5  16  17  18  19  20  21  22  23  24  25 0
 3-21G
 ****
 27  28  30  31  32  35  37  42  43  44  45  46  47 0
 3-21G
 ****
 48  49 0
 3-21G
 ****


