%nproc=1
%NoSave
%Mem=1900MB
#P OB98/GEN NMR

erre ene a

0 1
  C      473.539     411.801     188.128
  O      474.343     412.829     187.594
  H      474.119     411.242     188.858
  H      473.238     411.119     187.321
  H      472.648     412.218     188.615
  P      473.603     414.013     186.801
  C      473.469     412.609     184.625
  O      472.756     413.325     185.619
  C      472.784     412.764     183.259
  O      471.398     412.351     183.389
  C      472.794     414.206     182.721
  O      472.944     414.177     181.295
  C      471.371     414.686     183.025
  O      470.969     415.761     182.186
  C      470.581     413.396     182.814
  N      465.980     415.301     182.182
  C      467.054     415.236     181.313
  N      466.895     415.809     180.096
  N      468.185     414.637     181.602
  C      468.199     414.092     182.844
  C      467.218     414.104     183.805
  C      465.976     414.770     183.465
  O      464.997     414.897     184.221
  N      467.648     413.487     184.951
  C      468.883     413.130     184.702
  N      469.275     413.476     183.422
  O      474.809     414.729     186.029
  O      472.840     414.976     187.653
  H      470.022     415.962     182.365
  H      475.142     415.486     186.554
  H      465.141     415.789     181.907
  H      469.561     412.644     185.401
  H      470.435     413.165     181.746
  H      471.308     415.026     184.074
  H      466.049     416.247     179.777
  H      473.557     414.852     183.156
  H      467.649     415.718     179.432
  H      473.264     412.085     182.546
  H      473.495     411.547     184.887
  H      474.497     412.976     184.571
  P      474.363     414.596     180.680
  C      473.629     416.879     179.663
  O      474.431     416.196     180.619
  O      474.247     414.171     179.140
  O      475.532     413.931     181.345
  H      475.118     413.865     178.811
  H      473.789     417.933     179.751
  H      472.597     416.659     179.840
  H      473.898     416.559     178.678

 6  7  8  9  10  11  12  13  14  15  26  29  33  34 0
 6-311+G(2d,p)
 ****
 36  38  39  40  41 0
 6-311+G(2d,p)
 ****
 1  2  3  4  5  16  17  18  19  20  21  22  23  24  25 0
 3-21G
 ****
 27  28  30  31  32  35  37  42  43  44  45  46  47 0
 3-21G
 ****
 48  49 0
 3-21G
 ****


