%nproc=1
%NoSave
%Mem=1900MB
#P OB98/GEN NMR

erre ene a

0 1
  C      346.329     507.172    -409.004
  O      345.207     507.805    -409.590
  H      346.239     507.242    -407.918
  H      347.248     507.669    -409.317
  H      346.359     506.116    -409.288
  P      345.161     507.833    -411.195
  C      347.392     508.997    -411.815
  O      345.991     509.132    -411.642
  C      347.947     510.170    -412.612
  O      347.357     510.222    -413.929
  C      347.707     511.538    -411.975
  O      348.685     511.813    -410.985
  C      347.818     512.453    -413.184
  O      349.196     512.731    -413.516
  C      347.152     511.616    -414.286
  N      343.621     513.261    -417.502
  C      344.979     513.061    -417.689
  N      345.474     513.406    -418.902
  N      345.775     512.584    -416.771
  C      345.147     512.322    -415.600
  C      343.808     512.459    -415.300
  C      342.930     512.963    -416.336
  O      341.717     513.103    -416.257
  N      343.549     512.070    -414.015
  C      344.724     511.733    -413.525
  N      345.732     511.882    -414.447
  O      343.641     508.237    -411.515
  O      345.543     506.558    -411.869
  H      349.600     511.927    -413.889
  H      343.379     507.829    -412.361
  H      343.061     513.621    -418.259
  H      344.897     511.373    -412.521
  H      347.615     511.777    -415.263
  H      347.340     513.418    -413.004
  H      345.003     514.068    -419.501
  H      346.691     511.599    -411.561
  H      346.471     513.282    -419.037
  H      349.022     509.996    -412.747
  H      347.600     508.067    -412.354
  H      347.872     508.949    -410.831
  P      348.179     512.454    -409.598
  C      347.666     514.903    -410.323
  O      348.556     514.013    -409.652
  O      349.206     511.864    -408.527
  O      346.769     512.137    -409.250
  H      348.846     511.956    -407.629
  H      348.053     515.899    -410.273
  H      346.706     514.869    -409.852
  H      347.572     514.608    -411.347

 6  7  8  9  10  11  12  13  14  15  26  29  33  34 0
 6-311+G(2d,p)
 ****
 36  38  39  40  41 0
 6-311+G(2d,p)
 ****
 1  2  3  4  5  16  17  18  19  20  21  22  23  24  25 0
 3-21G
 ****
 27  28  30  31  32  35  37  42  43  44  45  46  47 0
 3-21G
 ****
 48  49 0
 3-21G
 ****


