%nproc=1
%NoSave
%Mem=1900MB
#P OB98/GEN NMR

erre ene a

0 1
  C      443.041     897.204     -52.943
  O      441.700     896.784     -52.676
  P      441.420     895.271     -52.218
  C      439.041     895.689     -53.176
  O      439.828     895.021     -52.182
  C      437.547     895.368     -52.953
  O      437.330     893.940     -52.836
  C      437.004     895.961     -51.662
  O      436.867     897.368     -51.613
  C      435.748     895.138     -51.447
  O      434.647     895.638     -52.194
  C      436.189     893.756     -51.970
  N      436.484     892.801     -50.899
  C      435.475     892.588     -49.964
  O      434.407     893.187     -49.982
  N      435.764     891.690     -48.967
  C      436.941     891.024     -48.808
  O      437.149     890.232     -47.891
  C      437.978     891.290     -49.819
  C      437.710     892.161     -50.804
  O      442.159     894.817     -51.006
  O      441.870     894.428     -53.508
  H      434.460     896.548     -51.876
  H      442.335     893.630     -53.193
  H      435.039     891.519     -48.285
  H      438.928     890.784     -49.715
  H      438.451     892.388     -51.554
  H      435.397     893.312     -52.590
  H      435.437     895.149     -50.388
  H      437.695     895.700     -50.850
  H      436.990     895.724     -53.832
  H      439.352     895.373     -54.168
  H      439.226     896.768     -53.110
  P      437.739     898.292     -50.625
  C      435.907     900.125     -50.359
  O      437.226     899.807     -50.779
  O      439.211     898.065     -50.590
  O      437.125     897.884     -49.197
  H      437.834     897.945     -48.524
  H      435.729     901.188     -50.548
  H      435.804     899.926     -49.290
  H      435.181     899.539     -50.925
  H      443.041     898.234     -53.234
  H      443.450     896.610     -53.734
  H      443.635     897.082     -52.061

 3  4  5  6  7  8  9  10  11  12  13  23  28  29  30  31  32 0
 6-311+G(2d,p)
 ****
 33  34 0
 6-311+G(2d,p)
 ****
 1  2  14  15  16  17  18  19  20  21  22  24  25  26  27 0
 3-21G
 ****
 35  36  37  38  39  40  41  42  43  44  45 0
 3-21G
 ****


