%nproc=1
%NoSave
%Mem=1900MB
#P OB98/GEN NMR

erre ene a

0 1
  C     -367.774     369.450    -247.563
  O     -366.476     368.893    -247.576
  H     -368.471     368.735    -248.010
  H     -367.782     370.366    -248.161
  H     -368.098     369.669    -246.542
  P     -365.374     369.575    -246.632
  C     -364.781     368.874    -244.204
  O     -365.801     369.249    -245.117
  C     -365.394     368.332    -242.913
  O     -366.211     369.382    -242.311
  C     -366.291     367.100    -243.112
  O     -366.123     366.220    -241.990
  C     -367.688     367.688    -243.046
  O     -368.669     366.720    -242.681
  C     -367.487     368.787    -242.010
  N     -371.254     370.699    -239.300
  C     -370.212     369.871    -238.930
  N     -370.199     369.432    -237.653
  N     -369.261     369.500    -239.747
  C     -369.384     370.028    -240.987
  C     -370.366     370.852    -241.480
  C     -371.426     371.241    -240.571
  O     -372.385     371.953    -240.843
  N     -370.167     371.114    -242.813
  C     -369.076     370.434    -243.128
  N     -368.568     369.757    -242.054
  O     -365.699     371.136    -246.788
  O     -363.956     369.264    -246.976
  H     -368.427     366.355    -241.806
  H     -365.129     371.525    -247.478
  H     -371.972     370.939    -238.635
  H     -368.634     370.383    -244.112
  H     -367.451     368.396    -240.985
  H     -367.964     368.107    -244.021
  H     -370.880     369.698    -236.959
  H     -366.098     366.555    -244.041
  H     -369.419     368.856    -237.357
  H     -364.584     368.113    -242.205
  H     -364.168     369.751    -243.967
  H     -364.143     368.116    -244.669
  P     -364.926     365.157    -242.039
  C     -362.369     365.558    -242.324
  O     -363.563     365.897    -241.634
  O     -364.745     364.888    -243.609
  O     -365.209     363.891    -241.299
  H     -364.485     363.962    -243.758
  H     -361.557     366.137    -241.937
  H     -362.489     365.765    -243.367
  H     -362.162     364.517    -242.188

 6  7  8  9  10  11  12  13  14  15  26  29  33  34 0
 6-311+G(2d,p)
 ****
 36  38  39  40  41 0
 6-311+G(2d,p)
 ****
 1  2  3  4  5  16  17  18  19  20  21  22  23  24  25 0
 3-21G
 ****
 27  28  30  31  32  35  37  42  43  44  45  46  47 0
 3-21G
 ****
 48  49 0
 3-21G
 ****


