%nproc=1
%NoSave
%Mem=1900MB
#P OB98/GEN NMR

erre ene a

0 1
  C     -408.847     -87.447     -14.154
  O     -409.029     -87.157     -15.534
  P     -410.491     -86.745     -16.044
  C     -411.215     -89.075     -17.094
  O     -411.413     -88.047     -16.143
  C     -412.534     -89.845     -17.289
  O     -412.881     -90.550     -16.080
  C     -413.711     -88.939     -17.645
  O     -413.798     -88.697     -19.040
  C     -414.887     -89.733     -17.095
  O     -415.224     -90.809     -17.986
  C     -414.282     -90.284     -15.777
  N     -414.349     -89.429     -14.569
  C     -415.585     -89.092     -14.022
  O     -416.673     -89.458     -14.489
  N     -415.558     -88.315     -12.899
  C     -414.451     -87.985     -12.168
  O     -414.489     -87.328     -11.132
  C     -413.181     -88.484     -12.699
  C     -413.183     -89.163     -13.861
  O     -410.260     -86.328     -17.568
  O     -411.129     -85.651     -15.253
  H     -415.806     -91.419     -17.497
  H     -410.454     -85.379     -17.700
  H     -416.445     -88.005     -12.530
  H     -412.278     -88.284     -12.131
  H     -412.250     -89.536     -14.264
  H     -414.748     -91.240     -15.512
  H     -415.774     -89.113     -17.019
  H     -413.647     -87.998     -17.082
  H     -412.377     -90.589     -18.091
  H     -410.428     -89.756     -16.768
  H     -410.883     -88.641     -18.044
  P     -412.927     -87.521     -19.701
  C     -414.968     -86.473     -20.853
  O     -413.943     -86.297     -19.897
  O     -412.124     -87.896     -20.900
  O     -412.004     -87.017     -18.491
  H     -411.113     -87.452     -18.526
  H     -415.671     -85.636     -20.777
  H     -415.502     -87.414     -20.672
  H     -414.537     -86.486     -21.860
  H     -407.824     -87.703     -13.975
  H     -409.474     -88.269     -13.876
  H     -409.107     -86.588     -13.572

 3  4  5  6  7  8  9  10  11  12  13  23  28  29  30  31  32 0
 6-311+G(2d,p)
 ****
 33  34 0
 6-311+G(2d,p)
 ****
 1  2  14  15  16  17  18  19  20  21  22  24  25  26  27 0
 3-21G
 ****
 35  36  37  38  39  40  41  42  43  44  45 0
 3-21G
 ****


