%nproc=1
%NoSave
%Mem=1900MB
#P OB98/GEN NMR

erre ene a

0 1
  C      161.928    -363.201     -11.949
  O      163.086    -362.363     -11.851
  P      163.697    -362.097     -10.390
  C      164.957    -364.367     -10.153
  O      163.920    -363.517      -9.675
  C      165.877    -364.782      -9.011
  O      165.148    -365.477      -7.976
  C      166.974    -365.745      -9.441
  O      168.015    -365.054     -10.103
  C      167.398    -366.362      -8.112
  O      168.449    -365.615      -7.485
  C      166.098    -366.303      -7.268
  N      165.547    -367.615      -6.984
  C      165.161    -367.839      -5.653
  O      165.323    -366.967      -4.807
  N      164.629    -369.063      -5.326
  C      164.520    -369.993      -6.235
  N      163.993    -371.178      -5.843
  C      164.931    -369.799      -7.634
  C      165.438    -368.595      -7.937
  O      162.466    -361.467      -9.592
  O      164.879    -361.189     -10.391
  H      169.157    -365.536      -8.155
  H      162.784    -360.829      -8.932
  H      164.833    -370.598      -8.357
  H      165.768    -368.368      -8.949
  H      166.292    -365.797      -6.312
  H      167.769    -367.385      -8.246
  H      166.551    -366.526     -10.092
  H      166.323    -363.876      -8.580
  H      163.720    -371.272      -4.874
  H      165.532    -363.861     -10.936
  H      163.870    -371.968      -6.470
  H      164.486    -365.249     -10.626
  P      168.902    -365.862     -11.154
  C      167.420    -365.435     -13.220
  O      167.852    -366.384     -12.265
  O      169.222    -367.216     -10.359
  O      170.131    -365.205     -11.673
  H      169.847    -367.767     -10.864
  H      166.889    -365.956     -14.028
  H      168.289    -364.913     -13.658
  H      166.739    -364.713     -12.758
  H      161.636    -363.287     -12.975
  H      161.127    -362.770     -11.385
  H      162.156    -364.171     -11.560

 3  4  5  6  7  8  9  10  11  12  13  21  23  27  28  29  30  32 0
 6-311+G(2d,p)
 ****
 34  35 0
 6-311+G(2d,p)
 ****
 1  2  14  15  16  17  18  19  20  22  24  25  26 0
 3-21G
 ****
 31  33  36  37  38  39  40  41  42  43  44  45  46 0
 3-21G
 ****


