%nproc=1
%NoSave
%Mem=1900MB
#P OB98/GEN NMR

erre ene a

0 1
  C      138.327    -125.524     345.497
  O      139.397    -125.436     344.577
  H      137.478    -126.029     345.031
  H      138.654    -126.107     346.364
  H      138.027    -124.525     345.835
  P      139.185    -124.474     343.310
  C      139.733    -122.213     344.472
  O      140.152    -123.213     343.556
  C      140.924    -121.355     344.908
  O      141.989    -122.233     345.358
  C      141.487    -120.476     343.786
  O      141.870    -119.212     344.336
  C      142.719    -121.235     343.325
  O      143.682    -120.383     342.716
  C      143.183    -121.877     344.629
  N      147.704    -123.511     342.903
  C      147.213    -122.273     343.120
  N      145.998    -121.925     343.590
  C      145.273    -123.017     343.889
  C      145.637    -124.343     343.723
  C      146.918    -124.577     343.194
  N      147.410    -125.837     342.936
  N      144.606    -125.181     344.111
  C      143.644    -124.372     344.508
  N      143.998    -123.058     344.386
  O      137.719    -123.879     343.576
  O      139.293    -125.126     341.974
  H      143.774    -119.579     343.269
  H      137.049    -124.537     343.303
  H      147.884    -121.453     342.879
  H      142.673    -124.684     344.876
  H      143.779    -121.192     345.247
  H      142.429    -122.000     342.594
  H      140.774    -120.315     342.974
  H      140.623    -120.751     345.775
  H      139.289    -122.696     345.349
  H      148.319    -125.912     342.503
  H      146.817    -126.643     343.087
  H      138.977    -121.579     343.995
  P      141.643    -117.920     343.413
  C      139.332    -117.342     344.440
  O      140.660    -116.907     344.181
  O      140.745    -118.480     342.210
  O      142.913    -117.312     342.911
  H      141.132    -118.208     341.355
  H      138.797    -116.570     344.953
  H      139.357    -118.223     345.047
  H      138.842    -117.561     343.515

 6  7  8  9  10  11  12  13  14  15  25  28  32  33  34  35 0
 6-311+G(2d,p)
 ****
 36  39  40 0
 6-311+G(2d,p)
 ****
 1  2  3  4  5  16  17  18  19  20  21  22  23  24 0
 3-21G
 ****
 26  27  29  30  31  37  38  41  42  43  44  45  46  47 0
 3-21G
 ****
 48 0
 3-21G
 ****


