%nproc=1
%NoSave
%Mem=1900MB
#P OB98/GEN NMR

erre ene a

0 1
  C      901.110     232.315     293.523
  O      899.946     231.714     292.990
  H      900.901     232.635     294.548
  H      901.376     233.193     292.928
  H      901.941     231.609     293.538
  P      900.100     230.987     291.567
  C      897.974     232.055     290.524
  O      898.618     230.865     290.956
  C      896.474     231.814     290.357
  O      896.235     230.847     289.305
  C      895.786     231.267     291.606
  O      895.456     232.304     292.521
  C      894.536     230.663     290.986
  O      893.593     231.701     290.670
  C      895.088     230.028     289.699
  N      893.538     225.207     289.855
  C      892.806     226.375     289.707
  N      891.466     226.237     289.591
  N      893.333     227.573     289.681
  C      894.685     227.559     289.815
  C      895.515     226.473     289.965
  C      894.921     225.158     289.990
  O      895.517     224.090     290.088
  N      896.833     226.856     290.058
  C      896.793     228.175     289.993
  N      895.512     228.649     289.844
  O      900.462     229.475     291.960
  O      901.126     231.574     290.657
  H      892.741     231.261     290.487
  H      901.089     229.122     291.298
  H      893.075     224.313     289.882
  H      897.652     228.823     290.039
  H      894.369     230.066     288.875
  H      894.028     229.958     291.661
  H      890.992     225.350     289.655
  H      896.379     230.475     292.081
  H      890.911     227.063     289.446
  H      896.013     232.758     290.041
  H      898.397     232.366     289.562
  H      898.147     232.841     291.268
  P      896.195     232.302     293.945
  C      894.036     233.300     294.986
  O      895.447     233.412     294.827
  O      897.613     232.982     293.611
  O      896.362     230.956     294.574
  H      898.276     232.719     294.274
  H      893.681     234.105     295.595
  H      893.803     232.368     295.456
  H      893.564     233.343     294.026

 6  7  8  9  10  11  12  13  14  15  26  29  33  34 0
 6-311+G(2d,p)
 ****
 36  38  39  40  41 0
 6-311+G(2d,p)
 ****
 1  2  3  4  5  16  17  18  19  20  21  22  23  24  25 0
 3-21G
 ****
 27  28  30  31  32  35  37  42  43  44  45  46  47 0
 3-21G
 ****
 48  49 0
 3-21G
 ****


