%nproc=1
%NoSave
%Mem=1900MB
#P OB98/GEN NMR

erre ene a

0 1
  C      601.991     498.588     523.632
  O      602.942     497.568     523.407
  H      602.419     499.317     524.327
  H      601.080     498.172     524.069
  H      601.753     499.097     522.690
  P      602.494     496.372     522.430
  C      602.206     497.242     520.020
  O      603.119     496.768     521.006
  C      602.804     497.078     518.620
  O      601.731     497.167     517.650
  C      603.834     498.150     518.268
  O      604.890     497.558     517.508
  C      603.057     499.123     517.393
  O      603.904     499.852     516.513
  C      602.069     498.184     516.698
  N      600.381     502.086     513.874
  C      601.606     501.539     514.013
  N      601.966     500.484     514.781
  C      600.894     499.968     515.406
  C      599.591     500.420     515.368
  C      599.341     501.547     514.562
  N      598.109     502.131     514.435
  N      598.781     499.649     516.186
  C      599.585     498.735     516.697
  N      600.877     498.901     516.265
  O      601.034     496.057     522.424
  O      603.451     495.186     522.913
  H      603.341     500.317     515.851
  H      604.367     495.494     523.051
  H      602.401     502.007     513.445
  H      599.287     497.957     517.386
  H      602.502     497.712     515.810
  H      602.525     499.845     518.028
  H      604.251     498.642     519.151
  H      603.223     496.069     518.532
  H      601.973     498.296     520.196
  H      598.013     502.925     513.822
  H      597.312     501.726     514.916
  H      601.281     496.659     520.112
  P      606.224     497.116     518.273
  C      605.913     494.654     518.994
  O      606.464     495.545     518.026
  O      606.351     497.563     519.693
  O      607.378     497.769     517.365
  H      608.097     498.093     517.950
  H      606.139     493.645     518.719
  H      604.852     494.783     519.034
  H      606.335     494.865     519.954

 6  7  8  9  10  11  12  13  14  15  25  28  32  33  34  35 0
 6-311+G(2d,p)
 ****
 36  39  40 0
 6-311+G(2d,p)
 ****
 1  2  3  4  5  16  17  18  19  20  21  22  23  24 0
 3-21G
 ****
 26  27  29  30  31  37  38  41  42  43  44  45  46  47 0
 3-21G
 ****
 48 0
 3-21G
 ****


