%nproc=1
%NoSave
%Mem=1900MB
#P OB98/GEN NMR

erre ene a

0 1
  C       29.366     -57.358     213.627
  O       28.213     -58.137     213.878
  H       29.050     -56.360     213.309
  H       29.958     -57.814     212.828
  H       29.970     -57.269     214.532
  P       28.449     -59.588     214.534
  C       27.895     -60.493     212.131
  O       28.694     -60.583     213.297
  C       28.355     -61.510     211.083
  O       29.772     -61.310     210.830
  C       28.159     -62.968     211.510
  O       27.781     -63.731     210.361
  C       29.540     -63.390     211.984
  O       29.716     -64.806     211.916
  C       30.450     -62.563     211.064
  N       31.779     -62.351     211.637
  C       32.760     -63.303     211.322
  O       32.479     -64.273     210.617
  N       34.017     -63.160     211.854
  C       34.258     -62.187     212.686
  N       35.521     -62.114     213.194
  C       33.244     -61.191     213.084
  C       32.042     -61.326     212.520
  O       26.977     -59.960     215.039
  O       29.495     -59.615     215.598
  H       29.919     -65.039     210.980
  H       26.274     -59.720     214.408
  H       33.491     -60.408     213.791
  H       31.238     -60.630     212.751
  H       30.570     -63.061     210.092
  H       29.685     -63.085     213.028
  H       27.411     -63.094     212.293
  H       27.834     -61.297     210.141
  H       36.183     -62.826     212.910
  H       27.953     -59.482     211.709
  H       35.805     -61.433     213.884
  H       26.856     -60.687     212.415
  P       26.231     -64.038     210.098
  C       26.021     -66.351     211.235
  O       25.677     -64.971     211.284
  O       25.886     -64.505     208.720
  O       25.528     -62.628     210.417
  H       24.804     -62.502     209.765
  H       25.593     -66.855     212.076
  H       27.086     -66.454     211.261
  H       25.643     -66.781     210.331

 6  7  8  9  10  11  12  13  14  15  16  26  30  31  32  33  35 0
 6-311+G(2d,p)
 ****
 37  38 0
 6-311+G(2d,p)
 ****
 1  2  3  4  5  17  18  19  20  21  22  23  24  25 0
 3-21G
 ****
 27  28  29  34  36  39  40  41  42  43  44  45  46 0
 3-21G
 ****


