%nproc=1
%NoSave
%Mem=1900MB
#P OB98/GEN NMR

erre ene a

0 1
  C     -130.067     -45.546     -94.481
  O     -129.384     -46.754     -94.788
  P     -130.273     -48.073     -95.021
  C     -131.269     -49.897     -93.460
  O     -130.506     -48.698     -93.561
  C     -130.666     -50.829     -92.414
  O     -129.323     -51.194     -92.788
  C     -130.555     -50.227     -91.021
  O     -131.777     -50.300     -90.305
  C     -129.517     -51.144     -90.394
  O     -130.139     -52.378     -89.982
  C     -128.564     -51.399     -91.568
  N     -124.217     -50.230     -89.139
  C     -125.197     -51.114     -88.854
  N     -126.329     -51.359     -89.544
  C     -126.419     -50.550     -90.615
  C     -125.516     -49.575     -91.009
  C     -124.361     -49.433     -90.226
  N     -123.346     -48.552     -90.535
  N     -125.951     -48.948     -92.156
  C     -127.089     -49.537     -92.455
  N     -127.412     -50.518     -91.559
  O     -129.237     -49.090     -95.697
  O     -131.493     -47.874     -95.855
  H     -129.434     -52.939     -89.605
  H     -129.720     -49.768     -96.207
  H     -125.047     -51.708     -87.957
  H     -127.707     -49.296     -93.309
  H     -128.192     -52.429     -91.586
  H     -129.048     -50.711     -89.505
  H     -130.163     -49.203     -91.059
  H     -131.272     -51.745     -92.390
  H     -131.271     -50.402     -94.431
  H     -122.475     -48.639     -90.034
  H     -123.363     -48.109     -91.446
  H     -132.302     -49.641     -93.195
  P     -132.090     -49.101     -89.282
  C     -130.780     -48.108     -87.268
  O     -130.951     -49.194     -88.160
  O     -133.414     -49.597     -88.535
  O     -132.270     -47.772     -89.936
  H     -133.924     -48.835     -88.199
  H     -130.207     -48.453     -86.404
  H     -131.746     -47.730     -86.916
  H     -130.228     -47.305     -87.763
  H     -129.356     -44.757     -94.353
  H     -130.626     -45.672     -93.578
  H     -130.733     -45.299     -95.281

 3  4  5  6  7  8  9  10  11  12  22  25  29  30  31  32 0
 6-311+G(2d,p)
 ****
 33  36  37 0
 6-311+G(2d,p)
 ****
 1  2  13  14  15  16  17  18  19  20  21  23  24  26 0
 3-21G
 ****
 27  28  34  35  38  39  40  41  42  43  44  45  46  47  48 0
 3-21G
 ****


