%nproc=1
%NoSave
%Mem=1900MB
#P OB98/GEN NMR

erre ene a

0 1
  C      953.865     201.756    -124.319
  O      953.128     201.764    -123.099
  P      953.776     201.630    -121.648
  C      952.438     199.429    -121.100
  O      953.698     200.099    -121.214
  C      952.567     197.914    -121.197
  O      953.499     197.425    -120.204
  C      951.212     197.236    -120.865
  O      950.224     197.126    -121.876
  C      951.574     195.926    -120.177
  O      951.622     194.835    -121.092
  C      952.965     196.205    -119.592
  N      951.971     193.934    -115.138
  C      951.725     193.483    -116.412
  N      951.081     192.289    -116.530
  N      952.068     194.137    -117.499
  C      952.609     195.361    -117.241
  C      952.885     195.927    -116.020
  C      952.559     195.154    -114.809
  O      952.775     195.497    -113.663
  N      953.434     197.194    -116.152
  C      953.459     197.377    -117.454
  N      952.962     196.299    -118.154
  O      953.314     202.647    -120.641
  O      955.353     201.882    -121.914
  H      951.618     193.996    -120.550
  H      955.702     202.326    -121.098
  H      951.706     193.374    -114.340
  H      953.813     198.277    -117.936
  H      953.669     195.410    -119.862
  H      950.837     195.675    -119.397
  H      950.714     191.783    -115.734
  H      950.723     197.853    -120.091
  H      950.712     192.060    -117.433
  H      952.954     197.598    -122.164
  H      951.815     199.821    -121.915
  H      951.950     199.714    -120.155
  P      949.114     198.223    -122.263
  C      947.844     197.422    -120.166
  O      948.263     198.554    -120.954
  O      948.087     197.422    -123.189
  O      949.662     199.437    -122.972
  H      947.533     198.060    -123.697
  H      947.026     197.725    -119.507
  H      948.671     197.082    -119.574
  H      947.499     196.617    -120.849
  H      953.191     201.861    -125.143
  H      954.397     200.832    -124.408
  H      954.560     202.569    -124.321

 3  4  5  6  7  8  9  10  11  12  23  26  30  31 0
 6-311+G(2d,p)
 ****
 33  35  36  37  38 0
 6-311+G(2d,p)
 ****
 1  2  13  14  15  16  17  18  19  20  21  22  24  25 0
 3-21G
 ****
 27  28  29  32  34  39  40  41  42  43  44  45  46  47  48  49 0
 3-21G
 ****


