%nproc=1
%NoSave
%Mem=1900MB
#P OB98/GEN NMR

erre ene a

0 1
  C     -125.795       9.768      91.850
  O     -126.401       9.172      92.977
  P     -126.420       7.593      93.230
  C     -127.590       7.922      95.529
  O     -127.606       7.264      94.266
  C     -128.989       8.068      96.147
  O     -129.786       8.948      95.327
  C     -129.707       6.714      96.154
  O     -129.468       5.787      97.195
  C     -131.175       7.044      95.912
  O     -131.935       7.080      97.121
  C     -131.127       8.431      95.266
  N     -134.835       9.752      92.071
  C     -134.621      10.161      93.374
  N     -135.629      10.857      93.947
  N     -133.536       9.889      94.051
  C     -132.662       9.104      93.375
  C     -132.756       8.650      92.080
  C     -133.942       8.992      91.330
  O     -134.206       8.579      90.203
  N     -131.716       7.817      91.755
  C     -131.011       7.733      92.864
  N     -131.569       8.464      93.886
  O     -125.095       6.928      93.424
  O     -127.029       7.057      91.836
  H     -132.830       7.396      96.903
  H     -126.610       6.195      91.644
  H     -135.728       9.926      91.626
  H     -130.117       7.133      92.989
  H     -131.757       9.138      95.822
  H     -131.642       6.283      95.275
  H     -136.534      10.958      93.508
  H     -129.385       6.183      95.248
  H     -135.582      11.024      94.947
  H     -128.937       8.544      97.131
  H     -127.127       8.903      95.381
  H     -126.950       7.366      96.220
  P     -129.031       4.258      97.022
  C     -129.594       3.800      99.475
  O     -129.787       3.388      98.133
  O     -127.507       4.223      97.517
  O     -129.134       3.726      95.629
  H     -127.054       3.449      97.135
  H     -129.887       2.986     100.144
  H     -130.222       4.673      99.684
  H     -128.547       4.053      99.660
  H     -125.911      10.830      91.902
  H     -126.261       9.402      90.959
  H     -124.753       9.524      91.834

 3  4  5  6  7  8  9  10  11  12  23  26  30  31 0
 6-311+G(2d,p)
 ****
 33  35  36  37  38 0
 6-311+G(2d,p)
 ****
 1  2  13  14  15  16  17  18  19  20  21  22  24  25 0
 3-21G
 ****
 27  28  29  32  34  39  40  41  42  43  44  45  46  47  48  49 0
 3-21G
 ****


