%nproc=1
%NoSave
%Mem=1900MB
#P OB98/GEN NMR

erre ene a

0 1
  C       77.859     315.109     -61.575
  O       78.850     315.638     -60.685
  P       80.416     315.347     -60.894
  C       80.365     313.122     -59.611
  O       80.709     313.766     -60.834
  C       81.551     312.408     -58.948
  O       81.959     311.246     -59.722
  C       82.807     313.273     -58.767
  O       83.451     312.791     -57.586
  C       83.622     312.920     -60.000
  O       84.999     313.248     -59.883
  C       83.338     311.425     -60.101
  N       86.806     309.314     -63.221
  C       86.818     309.546     -61.892
  N       85.844     310.077     -61.126
  C       84.749     310.340     -61.859
  C       84.585     310.148     -63.221
  C       85.685     309.616     -63.919
  N       85.697     309.421     -65.281
  N       83.331     310.566     -63.628
  C       82.758     311.012     -62.528
  N       83.573     310.896     -61.432
  O       81.312     316.161     -60.018
  O       80.681     315.710     -62.431
  H       85.447     312.988     -60.708
  H       81.496     316.246     -62.496
  H       87.738     309.279     -61.378
  H       81.769     311.452     -62.473
  H       83.953     310.854     -59.399
  H       83.222     313.469     -60.865
  H       82.594     314.343     -58.690
  H       81.210     312.032     -57.978
  H       79.571     312.393     -59.811
  H       86.562     309.126     -65.703
  H       84.920     309.759     -65.831
  H       79.959     313.874     -58.923
  P       83.450     313.633     -56.222
  C       85.930     314.245     -56.371
  O       84.602     314.737     -56.360
  O       83.517     312.808     -54.976
  O       82.100     314.493     -56.280
  H       81.866     314.796     -55.383
  H       86.230     313.977     -55.357
  H       86.598     315.029     -56.746
  H       86.016     313.369     -57.019
  H       76.888     315.423     -61.254
  H       77.909     314.040     -61.569
  H       78.041     315.469     -62.566

 3  4  5  6  7  8  9  10  11  12  22  25  29  30  31  32 0
 6-311+G(2d,p)
 ****
 33  36  37 0
 6-311+G(2d,p)
 ****
 1  2  13  14  15  16  17  18  19  20  21  23  24  26 0
 3-21G
 ****
 27  28  34  35  38  39  40  41  42  43  44  45  46  47  48 0
 3-21G
 ****


