%nproc=1
%NoSave
%Mem=1900MB
#P OB98/GEN NMR

erre ene a

0 1
  C     -334.201    -194.826    -209.666
  O     -333.232    -195.608    -210.364
  P     -331.939    -194.882    -210.980
  C     -332.745    -194.296    -213.345
  O     -331.903    -195.129    -212.563
  C     -332.881    -194.786    -214.796
  O     -331.950    -194.073    -215.664
  C     -332.612    -196.281    -214.987
  O     -333.501    -196.737    -216.014
  C     -331.172    -196.306    -215.470
  O     -330.832    -197.528    -216.103
  C     -331.169    -195.062    -216.365
  N     -329.821    -194.583    -216.643
  C     -329.004    -195.402    -217.427
  O     -329.394    -196.524    -217.766
  N     -327.759    -194.941    -217.776
  C     -327.317    -193.831    -217.265
  N     -326.084    -193.402    -217.656
  C     -328.085    -193.031    -216.290
  C     -329.323    -193.448    -216.049
  O     -330.649    -195.153    -210.269
  O     -332.326    -193.324    -210.878
  H     -329.874    -197.522    -216.322
  H     -331.514    -192.807    -210.690
  H     -327.642    -192.161    -215.825
  H     -329.969    -192.928    -215.360
  H     -331.672    -195.265    -217.315
  H     -330.497    -196.169    -214.611
  H     -332.784    -196.871    -214.079
  H     -333.894    -194.545    -215.144
  H     -325.555    -193.970    -218.302
  H     -332.344    -193.277    -213.347
  H     -325.693    -192.526    -217.336
  H     -333.732    -194.225    -212.866
  P     -334.939    -197.309    -215.605
  C     -334.700    -199.779    -216.396
  O     -335.296    -198.513    -216.603
  O     -335.919    -196.145    -216.131
  O     -335.166    -197.548    -214.149
  H     -336.747    -196.173    -215.616
  H     -335.260    -200.527    -216.975
  H     -334.730    -200.060    -215.341
  H     -333.661    -199.763    -216.743
  H     -334.992    -195.460    -209.323
  H     -334.600    -194.082    -210.324
  H     -333.738    -194.349    -208.828

 3  4  5  6  7  8  9  10  11  12  13  23  27  28  29  30  32 0
 6-311+G(2d,p)
 ****
 34  35 0
 6-311+G(2d,p)
 ****
 1  2  14  15  16  17  18  19  20  21  22  24  25  26 0
 3-21G
 ****
 31  33  36  37  38  39  40  41  42  43  44  45  46 0
 3-21G
 ****


