%nproc=1
%NoSave
%Mem=1900MB
#P OB98/GEN NMR

erre ene a

0 1
  C       21.560     -35.203     168.062
  O       21.315     -33.875     168.490
  P       22.556     -32.862     168.600
  C       22.615     -33.039     171.220
  O       23.291     -33.192     169.985
  C       23.578     -32.520     172.295
  O       24.621     -33.511     172.511
  C       24.271     -31.197     171.940
  O       24.423     -30.460     173.161
  C       25.624     -31.654     171.419
  O       26.607     -30.634     171.490
  C       25.890     -32.855     172.334
  N       26.880     -33.787     171.793
  C       28.197     -33.658     172.225
  O       28.579     -32.795     173.013
  N       29.089     -34.553     171.688
  C       28.811     -35.494     170.739
  O       29.655     -36.257     170.280
  C       27.415     -35.552     170.289
  C       26.528     -34.717     170.834
  O       21.802     -31.480     168.875
  O       23.442     -32.871     167.401
  H       21.007     -31.581     169.427
  H       27.475     -31.038     171.301
  H       30.043     -34.501     172.013
  H       27.160     -36.275     169.522
  H       25.491     -34.739     170.516
  H       26.212     -32.507     173.323
  H       25.525     -31.958     170.373
  H       23.701     -30.605     171.218
  H       23.022     -32.424     173.235
  H       22.215     -34.006     171.538
  H       21.771     -32.352     171.089
  P       23.826     -28.965     173.225
  C       26.027     -27.563     173.013
  O       24.831     -28.014     172.419
  O       24.140     -28.599     174.757
  O       22.375     -28.852     172.889
  H       25.053     -28.808     175.014
  H       26.707     -27.229     172.227
  H       26.516     -28.360     173.581
  H       25.815     -26.718     173.676
  H       20.639     -35.747     168.042
  H       22.239     -35.677     168.740
  H       21.987     -35.189     167.081

 3  4  5  6  7  8  9  10  11  12  13  24  28  29  30  31  32 0
 6-311+G(2d,p)
 ****
 33  34 0
 6-311+G(2d,p)
 ****
 1  2  14  15  16  17  18  19  20  21  22  23  25  26  27 0
 3-21G
 ****
 35  36  37  38  39  40  41  42  43  44  45 0
 3-21G
 ****


