%nproc=1
%NoSave
%Mem=1900MB
#P OB98/GEN NMR

erre ene a

0 1
  C      -17.948    -184.687     409.912
  O      -17.022    -185.501     410.600
  H      -18.425    -185.265     409.113
  H      -18.720    -184.355     410.615
  H      -17.452    -183.807     409.487
  P      -15.711    -185.955     409.791
  C      -14.213    -183.850     410.112
  O      -14.478    -185.191     410.491
  C      -13.438    -183.125     411.215
  O      -14.183    -183.237     412.460
  C      -12.035    -183.703     411.458
  O      -11.135    -182.626     411.733
  C      -12.215    -184.555     412.701
  O      -10.998    -184.724     413.421
  C      -13.289    -183.773     413.459
  N      -14.759    -184.287     418.326
  C      -14.131    -183.290     417.671
  N      -13.781    -183.223     416.371
  C      -14.193    -184.330     415.715
  C      -14.842    -185.436     416.246
  C      -15.126    -185.393     417.622
  N      -15.732    -186.427     418.298
  N      -15.065    -186.385     415.261
  C      -14.559    -185.856     414.161
  N      -14.012    -184.621     414.390
  O      -15.886    -185.175     408.398
  O      -15.542    -187.421     409.596
  H      -10.588    -183.841     413.541
  H      -16.516    -185.664     407.833
  H      -13.864    -182.426     418.278
  H      -14.551    -186.333     413.188
  H      -12.870    -182.936     414.038
  H      -12.588    -185.552     412.421
  H      -11.664    -184.277     410.615
  H      -13.394    -182.054     410.970
  H      -15.164    -183.332     409.932
  H      -15.842    -186.335     419.302
  H      -15.957    -187.278     417.810
  H      -13.625    -183.846     409.186
  P      -10.655    -181.741     410.481
  C      -11.666    -179.355     410.636
  O      -10.567    -180.203     410.940
  O      -11.930    -181.773     409.505
  O       -9.433    -182.270     409.803
  H      -11.644    -182.012     408.605
  H      -11.467    -178.369     411.000
  H      -12.550    -179.736     411.103
  H      -11.809    -179.322     409.576

 6  7  8  9  10  11  12  13  14  15  25  28  32  33  34  35 0
 6-311+G(2d,p)
 ****
 36  39  40 0
 6-311+G(2d,p)
 ****
 1  2  3  4  5  16  17  18  19  20  21  22  23  24 0
 3-21G
 ****
 26  27  29  30  31  37  38  41  42  43  44  45  46  47 0
 3-21G
 ****
 48 0
 3-21G
 ****


