%nproc=1
%NoSave
%Mem=1900MB
#P OB98/GEN NMR

erre ene a

0 1
  C     -400.126    -152.896     -27.838
  O     -400.907    -151.721     -27.990
  P     -401.863    -151.279     -26.779
  C     -401.676    -148.771     -27.419
  O     -402.536    -149.878     -27.199
  C     -402.453    -147.456     -27.455
  O     -403.144    -147.353     -28.733
  C     -403.527    -147.320     -26.355
  O     -403.598    -145.920     -26.012
  C     -404.806    -147.729     -27.061
  O     -405.964    -147.232     -26.405
  C     -404.554    -147.138     -28.449
  N     -409.339    -147.923     -30.103
  C     -408.849    -147.215     -29.059
  N     -407.559    -147.048     -28.678
  C     -406.737    -147.709     -29.515
  C     -407.083    -148.498     -30.601
  C     -408.464    -148.583     -30.900
  N     -408.962    -149.290     -31.974
  N     -405.960    -149.036     -31.192
  C     -404.950    -148.575     -30.479
  N     -405.364    -147.760     -29.471
  O     -400.818    -150.864     -25.638
  O     -402.810    -152.327     -26.298
  H     -405.932    -147.499     -25.466
  H     -400.851    -151.506     -24.902
  H     -409.592    -146.711     -28.437
  H     -403.904    -148.824     -30.654
  H     -404.743    -146.047     -28.484
  H     -404.867    -148.818     -27.101
  H     -403.323    -147.921     -25.460
  H     -401.738    -146.622     -27.401
  H     -401.173    -148.904     -28.380
  H     -409.935    -149.195     -32.195
  H     -408.302    -149.631     -32.671
  H     -400.910    -148.741     -26.630
  P     -403.853    -145.569     -24.463
  C     -401.747    -144.094     -24.100
  O     -403.171    -144.149     -24.199
  O     -402.902    -146.613     -23.687
  O     -405.282    -145.692     -24.034
  H     -403.276    -146.794     -22.805
  H     -401.407    -143.135     -24.502
  H     -401.264    -144.903     -24.653
  H     -401.459    -144.160     -23.041
  H     -399.547    -153.056     -28.723
  H     -400.771    -153.735     -27.677
  H     -399.472    -152.783     -26.999

 3  4  5  6  7  8  9  10  11  12  22  25  29  30  31  32 0
 6-311+G(2d,p)
 ****
 33  36  37 0
 6-311+G(2d,p)
 ****
 1  2  13  14  15  16  17  18  19  20  21  23  24  26 0
 3-21G
 ****
 27  28  34  35  38  39  40  41  42  43  44  45  46  47  48 0
 3-21G
 ****


