%nproc=1
%NoSave
%Mem=1900MB
#P OB98/GEN NMR

erre ene a

0 1
  C      253.571    -512.007     -46.735
  O      254.738    -512.839     -46.792
  P      255.278    -513.332     -48.227
  C      253.578    -515.324     -48.129
  O      254.891    -514.882     -48.413
  C      253.344    -516.727     -48.691
  O      253.564    -516.744     -50.126
  C      254.289    -517.787     -48.143
  O      253.919    -518.202     -46.831
  C      254.149    -518.891     -49.183
  O      252.977    -519.696     -48.927
  C      253.971    -518.076     -50.483
  N      255.187    -518.060     -51.296
  C      255.334    -519.110     -52.208
  O      254.542    -520.050     -52.294
  N      256.462    -519.062     -52.991
  C      257.460    -518.130     -52.909
  O      258.448    -518.152     -53.633
  C      257.280    -517.087     -51.873
  C      256.173    -517.112     -51.138
  O      256.867    -513.419     -47.962
  O      254.979    -512.442     -49.378
  H      253.161    -520.221     -48.132
  H      257.337    -513.274     -48.808
  H      256.572    -519.796     -53.674
  H      258.057    -516.351     -51.772
  H      256.029    -516.351     -50.367
  H      253.152    -518.499     -51.087
  H      255.010    -519.569     -49.197
  H      255.319    -517.407     -48.155
  H      252.298    -517.009     -48.500
  H      252.860    -514.628     -48.586
  H      253.423    -515.313     -47.045
  P      254.495    -517.326     -45.614
  C      256.796    -518.571     -45.788
  O      255.676    -518.203     -44.991
  O      253.295    -517.440     -44.557
  O      254.845    -515.925     -45.999
  H      252.839    -518.305     -44.611
  H      257.031    -517.795     -46.518
  H      256.574    -519.517     -46.299
  H      257.656    -518.716     -45.127
  H      253.350    -511.772     -45.715
  H      252.742    -512.525     -47.169
  H      253.751    -511.103     -47.278

 3  4  5  6  7  8  9  10  11  12  13  23  28  29  30  31  32 0
 6-311+G(2d,p)
 ****
 33  34 0
 6-311+G(2d,p)
 ****
 1  2  14  15  16  17  18  19  20  21  22  24  25  26 0
 3-21G
 ****
 27  35  36  37  38  39  40  41  42  43  44  45 0
 3-21G
 ****


