%nproc=1
%NoSave
%Mem=1900MB
#P OB98/GEN NMR

erre ene a

0 1
  C      288.437     300.144     416.498
  O      287.867     300.654     417.686
  P      288.785     300.876     418.979
  C      286.838     300.944     420.658
  O      288.017     300.253     420.240
  C      285.742     299.939     421.012
  O      285.384     299.147     419.856
  C      286.139     298.941     422.091
  O      286.111     299.539     423.373
  C      285.102     297.843     421.873
  O      283.863     298.184     422.512
  C      284.938     297.864     420.346
  N      284.699     293.040     418.691
  C      283.854     293.777     419.452
  N      284.005     295.044     419.883
  C      285.186     295.547     419.470
  C      286.160     294.900     418.724
  C      285.874     293.591     418.302
  N      286.692     292.857     417.475
  N      287.248     295.737     418.522
  C      286.933     296.854     419.159
  N      285.671     296.805     419.682
  O      289.286     302.268     419.170
  O      290.003     299.860     418.766
  H      283.729     299.144     422.394
  H      290.841     300.362     418.722
  H      282.932     293.278     419.744
  H      287.575     297.720     419.239
  H      283.885     297.762     420.051
  H      285.418     296.875     422.272
  H      287.140     298.538     421.875
  H      284.847     300.505     421.323
  H      286.503     301.583     419.834
  H      286.322     291.985     417.122
  H      287.403     293.346     416.939
  H      287.071     301.572     421.524
  P      287.471     299.733     424.193
  C      286.593     297.981     425.840
  O      287.691     298.405     425.055
  O      287.594     301.014     424.949
  O      288.609     299.614     423.065
  H      289.368     300.187     423.304
  H      286.528     298.594     426.744
  H      286.752     296.938     426.135
  H      285.658     298.054     425.285
  H      287.681     300.063     415.746
  H      288.855     299.178     416.689
  H      289.207     300.805     416.160

 3  4  5  6  7  8  9  10  11  12  22  25  29  30  31  32 0
 6-311+G(2d,p)
 ****
 33  36  37 0
 6-311+G(2d,p)
 ****
 1  2  13  14  15  16  17  18  19  20  21  23  24  26 0
 3-21G
 ****
 27  28  34  35  38  39  40  41  42  43  44  45  46  47  48 0
 3-21G
 ****


