%nproc=1
%NoSave
%Mem=1900MB
#P OB98/GEN NMR

erre ene a

0 1
  C     -111.472      89.180     -98.493
  O     -111.351      90.502     -99.039
  P     -110.226      91.551     -98.573
  C     -109.567      92.321    -100.944
  O     -110.085      92.708     -99.677
  C     -109.489      93.505    -101.912
  O     -110.716      93.592    -102.700
  C     -109.283      94.872    -101.235
  O     -108.396      95.620    -102.070
  C     -110.695      95.452    -101.258
  O     -110.736      96.855    -101.075
  C     -111.149      94.970    -102.640
  N     -112.581      95.073    -102.902
  C     -112.982      95.716    -104.084
  O     -112.161      96.225    -104.849
  N     -114.326      95.784    -104.366
  C     -115.192      95.274    -103.550
  N     -116.508      95.369    -103.896
  C     -114.816      94.610    -102.287
  C     -113.511      94.546    -102.033
  O     -108.923      90.909     -98.213
  O     -110.847      92.308     -97.303
  H     -110.136      92.499     -96.662
  H     -110.128      97.080    -100.345
  H     -115.573      94.193    -101.639
  H     -113.150      94.046    -101.136
  H     -110.594      95.513    -103.413
  H     -111.274      94.992    -100.454
  H     -108.848      94.804    -100.232
  H     -108.674      93.310    -102.622
  H     -116.723      95.823    -104.777
  H     -110.225      91.556    -101.370
  H     -117.259      94.999    -103.337
  H     -108.573      91.875    -100.805
  P     -106.827      95.632    -101.754
  C     -106.139      94.562    -104.033
  O     -106.047      95.669    -103.157
  O     -106.572      94.117    -101.283
  O     -106.369      96.582    -100.697
  H     -105.792      94.090    -100.696
  H     -106.300      94.929    -105.047
  H     -106.957      93.888    -103.767
  H     -105.195      94.003    -104.002
  H     -112.291      88.675     -98.960
  H     -111.646      89.244     -97.439
  H     -110.568      88.636     -98.673

 3  4  5  6  7  8  9  10  11  12  13  24  27  28  29  30  32 0
 6-311+G(2d,p)
 ****
 34  35 0
 6-311+G(2d,p)
 ****
 1  2  14  15  16  17  18  19  20  21  22  23  25  26 0
 3-21G
 ****
 31  33  36  37  38  39  40  41  42  43  44  45  46 0
 3-21G
 ****


