%nproc=1
%NoSave
%Mem=1900MB
#P OB98/GEN NMR

erre ene a

0 1
  C     -251.436      73.465      11.868
  O     -252.269      72.830      12.845
  P     -253.802      72.464      12.539
  C     -254.362      72.422      15.045
  O     -254.469      71.730      13.806
  C     -254.892      71.611      16.240
  O     -256.296      71.274      16.056
  C     -254.155      70.292      16.507
  O     -254.223      70.080      17.917
  C     -255.026      69.286      15.771
  O     -254.823      67.944      16.196
  C     -256.413      69.840      16.085
  N     -258.659      65.746      13.978
  C     -257.825      65.869      15.033
  N     -257.297      66.991      15.556
  C     -257.747      68.080      14.907
  C     -258.609      68.114      13.822
  C     -259.068      66.871      13.346
  N     -259.881      66.737      12.243
  N     -258.821      69.412      13.402
  C     -258.089      70.148      14.215
  N     -257.424      69.389      15.144
  O     -254.013      71.748      11.242
  O     -254.548      73.883      12.502
  H     -254.908      67.916      17.168
  H     -255.138      73.915      11.725
  H     -257.531      64.936      15.510
  H     -257.984      71.225      14.164
  H     -256.739      69.550      17.091
  H     -254.801      69.332      14.697
  H     -253.121      70.295      16.157
  H     -254.842      72.260      17.123
  H     -254.920      73.363      14.970
  H     -260.079      65.801      11.921
  H     -260.088      67.549      11.684
  H     -253.307      72.672      15.216
  P     -252.902      69.986      18.820
  C     -253.971      68.856      20.854
  O     -253.385      70.042      20.346
  O     -251.827      70.960      18.464
  O     -252.401      68.473      18.647
  H     -251.464      68.407      18.905
  H     -254.993      68.764      20.475
  H     -253.998      68.913      21.946
  H     -253.390      67.975      20.557
  H     -250.459      73.617      12.277
  H     -251.860      74.409      11.597
  H     -251.367      72.843      11.000

 3  4  5  6  7  8  9  10  11  12  22  25  29  30  31  32 0
 6-311+G(2d,p)
 ****
 33  36  37 0
 6-311+G(2d,p)
 ****
 1  2  13  14  15  16  17  18  19  20  21  23  24  26 0
 3-21G
 ****
 27  28  34  35  38  39  40  41  42  43  44  45  46  47  48 0
 3-21G
 ****


