%nproc=1
%NoSave
%Mem=1900MB
#P OB98/GEN NMR

erre ene a

0 1
  C     -243.644    -308.367      74.339
  O     -243.800    -309.500      73.472
  P     -243.069    -309.588      72.047
  C     -240.856    -310.871      72.302
  O     -242.227    -310.958      71.920
  C     -240.280    -312.209      72.791
  O     -240.706    -312.495      74.156
  C     -240.669    -313.430      71.944
  O     -239.566    -314.337      72.030
  C     -241.873    -313.975      72.700
  O     -242.178    -315.327      72.393
  C     -241.418    -313.745      74.145
  N     -244.839    -316.584      76.700
  C     -243.740    -316.924      75.986
  N     -242.855    -316.113      75.375
  C     -243.171    -314.820      75.567
  C     -244.262    -314.317      76.277
  C     -245.131    -315.272      76.848
  N     -246.280    -314.929      77.529
  N     -244.277    -312.931      76.232
  C     -243.223    -312.602      75.505
  N     -242.521    -313.711      75.088
  O     -242.292    -308.362      71.681
  O     -244.269    -309.797      71.000
  H     -242.970    -315.583      72.908
  H     -244.142    -309.202      70.238
  H     -243.546    -317.993      75.907
  H     -242.939    -311.602      75.233
  H     -240.719    -314.536      74.466
  H     -242.758    -313.364      72.456
  H     -240.894    -313.189      70.905
  H     -239.184    -312.103      72.828
  H     -240.759    -310.119      73.103
  H     -246.886    -315.677      77.823
  H     -246.576    -313.958      77.545
  H     -240.272    -310.511      71.446
  P     -238.931    -315.018      70.724
  C     -237.283    -313.450      69.537
  O     -237.450    -314.416      70.570
  O     -239.778    -314.938      69.496
  O     -238.664    -316.539      71.155
  H     -238.568    -317.095      70.351
  H     -237.248    -313.951      68.565
  H     -236.344    -312.914      69.705
  H     -238.105    -312.728      69.547
  H     -244.216    -308.519      75.230
  H     -243.988    -307.486      73.840
  H     -242.611    -308.252      74.593

 3  4  5  6  7  8  9  10  11  12  22  25  29  30  31  32 0
 6-311+G(2d,p)
 ****
 33  36  37 0
 6-311+G(2d,p)
 ****
 1  2  13  14  15  16  17  18  19  20  21  23  24  26 0
 3-21G
 ****
 27  28  34  35  38  39  40  41  42  43  44  45  46  47  48 0
 3-21G
 ****


