%nproc=1
%NoSave
%Mem=1900MB
#P OB98/GEN NMR

erre ene a

0 1
  C      113.674     666.685     223.392
  O      113.931     667.943     223.980
  H      114.523     666.026     223.599
  H      113.574     666.794     222.314
  H      112.773     666.230     223.808
  P      112.734     669.006     224.088
  C      113.450     669.219     226.554
  O      112.366     669.123     225.643
  C      112.951     669.434     227.983
  O      112.395     670.779     228.094
  C      111.853     668.454     228.412
  O      111.975     668.255     229.822
  C      110.592     669.242     228.106
  O      109.467     668.714     228.777
  C      111.026     670.649     228.530
  N      110.169     671.692     227.972
  C      108.857     671.736     228.430
  O      108.405     670.918     229.240
  N      108.062     672.704     227.892
  C      108.425     673.592     226.919
  O      107.658     674.420     226.455
  C      109.817     673.479     226.440
  C      110.608     672.546     226.983
  O      111.568     668.756     223.186
  O      113.426     670.417     223.785
  H      109.640     668.668     229.746
  H      112.788     671.023     223.368
  H      107.106     672.751     228.225
  H      110.132     674.152     225.661
  H      111.637     672.441     226.653
  H      111.013     670.749     229.619
  H      110.371     669.213     227.034
  H      111.891     667.503     227.886
  H      113.809     669.393     228.670
  H      114.075     670.067     226.246
  H      114.050     668.306     226.510
  P      112.560     666.893     230.450
  C      114.834     668.022     230.887
  O      114.153     666.904     230.323
  O      111.904     665.654     229.931
  O      112.321     667.037     232.033
  H      112.213     666.152     232.428
  H      115.888     667.911     230.737
  H      114.626     668.074     231.935
  H      114.499     668.920     230.412

 6  7  8  9  10  11  12  13  14  15  16  26  31  32  33  34  35 0
 6-311+G(2d,p)
 ****
 36  37 0
 6-311+G(2d,p)
 ****
 1  2  3  4  5  17  18  19  20  21  22  23  24  25 0
 3-21G
 ****
 27  28  29  30  38  39  40  41  42  43  44  45 0
 3-21G
 ****


