%nproc=1
%NoSave
%Mem=1900MB
#P OB98/GEN NMR

erre ene a

0 1
  C      -22.734      57.838      28.492
  O      -23.428      57.576      27.284
  P      -23.391      58.702      26.138
  C      -21.521      60.164      25.064
  O      -21.892      59.274      26.103
  C      -20.682      61.318      25.619
  O      -21.562      62.230      26.325
  C      -19.583      60.898      26.601
  O      -18.500      61.822      26.435
  C      -20.232      61.112      27.955
  O      -19.281      61.254      29.005
  C      -21.064      62.359      27.675
  N      -22.978      65.049      31.505
  C      -21.752      65.158      30.873
  N      -20.953      66.165      31.285
  N      -21.350      64.354      29.923
  C      -22.264      63.406      29.608
  C      -23.489      63.173      30.185
  C      -23.938      64.091      31.207
  O      -25.048      64.085      31.732
  N      -24.092      62.063      29.656
  C      -23.268      61.674      28.704
  N      -22.168      62.484      28.606
  O      -24.237      59.894      26.783
  O      -23.916      58.282      24.801
  H      -18.785      60.414      29.075
  H      -25.174      59.850      26.508
  H      -23.241      65.709      32.217
  H      -23.415      60.825      28.057
  H      -20.472      63.282      27.736
  H      -20.874      60.257      28.196
  H      -21.212      66.839      31.989
  H      -19.235      59.872      26.456
  H      -20.064      66.287      30.816
  H      -20.251      61.868      24.774
  H      -22.429      60.579      24.613
  H      -20.970      59.619      24.291
  P      -17.025      61.326      26.822
  C      -15.380      59.568      25.868
  O      -16.720      60.006      25.971
  O      -17.219      60.765      28.312
  O      -15.977      62.389      26.787
  H      -16.399      60.905      28.823
  H      -15.376      58.502      25.627
  H      -14.833      59.720      26.803
  H      -14.880      60.114      25.064
  H      -22.846      57.006      29.156
  H      -23.136      58.717      28.951
  H      -21.696      57.989      28.281

 3  4  5  6  7  8  9  10  11  12  23  26  30  31 0
 6-311+G(2d,p)
 ****
 33  35  36  37  38 0
 6-311+G(2d,p)
 ****
 1  2  13  14  15  16  17  18  19  20  21  22  24  25 0
 3-21G
 ****
 27  28  29  32  34  39  40  41  42  43  44  45  46  47  48  49 0
 3-21G
 ****


