%nproc=1
%NoSave
%Mem=1900MB
#P OB98/GEN NMR

erre ene a

0 1
  C      622.685    -243.742    -650.761
  O      623.307    -242.921    -649.772
  P      623.507    -241.347    -649.908
  C      625.851    -241.469    -651.104
  O      624.481    -241.077    -651.146
  C      626.739    -240.615    -651.995
  O      626.818    -239.263    -651.486
  C      628.191    -241.154    -651.984
  O      628.549    -242.232    -652.832
  C      629.080    -239.917    -652.123
  O      629.439    -239.672    -653.481
  C      628.194    -238.790    -651.578
  N      631.365    -235.634    -649.124
  C      631.290    -235.908    -650.465
  N      632.209    -235.318    -651.270
  N      630.396    -236.719    -650.998
  C      629.600    -237.318    -650.078
  C      629.589    -237.144    -648.713
  C      630.547    -236.190    -648.138
  O      630.644    -235.894    -646.959
  N      628.643    -237.941    -648.101
  C      628.109    -238.607    -649.098
  N      628.662    -238.279    -650.311
  O      623.829    -240.627    -648.632
  O      622.068    -240.825    -650.424
  H      629.821    -238.761    -653.527
  H      621.950    -239.912    -650.041
  H      632.058    -234.987    -648.777
  H      627.339    -239.356    -648.993
  H      628.171    -237.944    -652.274
  H      630.008    -240.039    -651.553
  H      632.973    -234.763    -650.912
  H      628.386    -241.539    -650.972
  H      632.293    -235.677    -652.204
  H      626.346    -240.532    -653.012
  H      625.880    -242.521    -651.420
  H      626.213    -241.440    -650.068
  P      629.245    -243.611    -652.380
  C      631.510    -242.594    -653.068
  O      630.779    -243.316    -652.053
  O      629.310    -244.464    -653.731
  O      628.512    -244.353    -651.301
  H      629.463    -245.410    -653.522
  H      632.578    -242.724    -652.894
  H      631.268    -241.552    -652.988
  H      631.241    -242.987    -654.058
  H      622.676    -244.758    -650.427
  H      623.232    -243.673    -651.678
  H      621.680    -243.410    -650.920

 3  4  5  6  7  8  9  10  11  12  23  26  30  31 0
 6-311+G(2d,p)
 ****
 33  35  36  37  38 0
 6-311+G(2d,p)
 ****
 1  2  13  14  15  16  17  18  19  20  21  22  24  25 0
 3-21G
 ****
 27  28  29  32  34  39  40  41  42  43  44  45  46  47  48  49 0
 3-21G
 ****


