%nproc=1
%NoSave
%Mem=1900MB
#P OB98/GEN NMR

erre ene a

0 1
  C     -194.229    -492.539     320.015
  O     -193.082    -493.194     319.523
  H     -195.050    -492.699     319.314
  H     -194.041    -491.465     320.098
  H     -194.525    -492.935     320.992
  P     -191.831    -493.396     320.500
  C     -191.384    -495.485     319.049
  O     -190.816    -494.399     319.764
  C     -190.511    -496.742     319.183
  O     -189.269    -496.527     318.460
  C     -190.136    -497.016     320.641
  O     -189.906    -498.399     320.889
  C     -188.823    -496.262     320.801
  O     -188.017    -496.758     321.867
  C     -188.200    -496.452     319.417
  N     -183.965    -493.879     320.606
  C     -184.676    -494.777     321.371
  N     -184.193    -495.035     322.610
  N     -185.772    -495.364     320.960
  C     -186.174    -494.964     319.728
  C     -185.566    -494.059     318.891
  C     -184.331    -493.443     319.341
  O     -183.677    -492.617     318.712
  N     -186.272    -493.903     317.724
  C     -187.311    -494.705     317.859
  N     -187.285    -495.390     319.050
  O     -192.417    -494.306     321.680
  O     -191.213    -492.139     321.034
  H     -187.601    -497.585     321.564
  H     -191.877    -494.212     322.483
  H     -183.107    -493.478     320.957
  H     -188.096    -494.835     317.128
  H     -187.644    -497.394     319.369
  H     -189.054    -495.218     321.023
  H     -183.478    -494.462     323.022
  H     -190.885    -496.648     321.344
  H     -184.857    -495.434     323.277
  H     -191.007    -497.592     318.713
  H     -191.461    -495.176     318.007
  H     -192.401    -495.686     319.403
  P     -190.898    -499.176     321.877
  C     -190.717    -501.539     320.690
  O     -190.580    -500.742     321.850
  O     -192.321    -499.064     321.162
  O     -190.929    -498.631     323.270
  H     -192.934    -498.533     321.699
  H     -190.448    -502.549     320.918
  H     -190.075    -501.163     319.921
  H     -191.732    -501.507     320.353

 6  7  8  9  10  11  12  13  14  15  26  29  33  34 0
 6-311+G(2d,p)
 ****
 36  38  39  40  41 0
 6-311+G(2d,p)
 ****
 1  2  3  4  5  16  17  18  19  20  21  22  23  24  25 0
 3-21G
 ****
 27  28  30  31  32  35  37  42  43  44  45  46  47 0
 3-21G
 ****
 48  49 0
 3-21G
 ****


