%nproc=1
%NoSave
%Mem=1900MB
#P OB98/GEN NMR

erre ene a

0 1
  C     1005.446     232.796     491.466
  O     1004.360     232.137     492.050
  P     1004.646     231.264     493.398
  C     1004.202     233.391     494.844
  O     1003.850     232.026     494.580
  C     1003.019     234.299     494.563
  O     1002.790     234.388     493.116
  C     1001.691     233.877     495.165
  O     1001.576     234.251     496.524
  C     1000.717     234.659     494.299
  O     1000.658     236.037     494.743
  C     1001.378     234.592     492.901
  N     1000.978     232.794     488.127
  C     1001.472     233.945     488.629
  N     1001.540     234.368     489.908
  C     1000.954     233.471     490.725
  C     1000.359     232.248     490.350
  C     1000.391     231.936     489.009
  N      999.884     230.741     488.496
  N      999.859     231.620     491.472
  C     1000.164     232.394     492.469
  N     1000.847     233.525     492.085
  O     1006.177     231.588     493.700
  O     1004.375     229.813     493.263
  H     1001.518     236.443     494.501
  H     1006.561     230.860     494.240
  H     1001.911     234.629     487.891
  H      999.944     232.189     493.505
  H     1001.280     235.514     492.356
  H      999.704     234.266     494.342
  H     1001.530     232.814     495.025
  H     1003.311     235.317     494.898
  H     1005.054     233.671     494.233
  H     1000.104     230.524     487.556
  H      999.626     230.018     489.160
  H     1004.499     233.459     495.922
  P     1000.231     233.825     497.290
  C     1001.472     232.020     498.697
  O     1000.720     233.245     498.692
  O      999.745     232.522     496.457
  O      999.207     234.896     497.319
  H      998.800     232.419     496.545
  H     1001.986     231.943     499.675
  H     1002.252     232.037     497.925
  H     1000.819     231.184     498.555
  H     1005.116     233.325     490.597
  H     1006.190     232.079     491.187
  H     1005.863     233.488     492.168

 3  4  5  6  7  8  9  10  11  12  22  25  29  30  31  32 0
 6-311+G(2d,p)
 ****
 33  36  37 0
 6-311+G(2d,p)
 ****
 1  2  13  14  15  16  17  18  19  20  21  23  24  26 0
 3-21G
 ****
 27  28  34  35  38  39  40  41  42  43  44  45  46  47  48 0
 3-21G
 ****


