%nproc=1
%NoSave
%Mem=1900MB
#P OB98/GEN NMR

erre ene a

0 1
  C     -391.038     496.606     622.611
  O     -390.134     497.606     623.016
  P     -388.652     497.304     623.537
  C     -387.480     498.797     621.735
  O     -387.702     498.525     623.105
  C     -385.969     498.838     621.415
  O     -385.365     499.922     622.167
  C     -385.255     497.531     621.847
  O     -384.311     497.054     620.904
  C     -384.775     497.854     623.256
  O     -383.724     497.011     623.692
  C     -384.431     499.344     623.118
  N     -381.781     501.247     627.022
  C     -381.318     500.736     625.827
  N     -379.978     500.555     625.732
  N     -382.106     500.407     624.831
  C     -383.429     500.543     625.103
  C     -383.997     501.040     626.255
  C     -383.117     501.435     627.329
  O     -383.488     501.777     628.457
  N     -385.378     500.975     626.208
  C     -385.623     500.406     625.051
  N     -384.469     500.109     624.359
  O     -388.151     495.914     623.314
  O     -388.810     497.525     625.128
  H     -383.583     497.186     624.646
  H     -388.206     496.884     625.567
  H     -381.123     501.409     627.793
  H     -386.615     500.174     624.667
  H     -383.418     499.484     622.725
  H     -385.611     497.713     623.944
  H     -379.383     500.657     626.533
  H     -386.009     496.707     621.900
  H     -379.649     499.949     624.976
  H     -385.839     499.065     620.356
  H     -387.932     499.782     621.546
  H     -387.996     498.081     621.102
  P     -384.273     495.658     620.156
  C     -382.419     496.118     618.448
  O     -382.796     495.397     619.602
  O     -385.118     495.871     618.805
  O     -384.847     494.505     620.935
  H     -385.647     495.064     618.624
  H     -381.525     495.682     618.024
  H     -382.208     497.156     618.716
  H     -383.223     496.085     617.687
  H     -391.958     497.059     622.307
  H     -391.221     495.939     623.427
  H     -390.621     496.060     621.791

 3  4  5  6  7  8  9  10  11  12  23  26  30  31 0
 6-311+G(2d,p)
 ****
 33  35  36  37  38 0
 6-311+G(2d,p)
 ****
 1  2  13  14  15  16  17  18  19  20  21  22  24  25 0
 3-21G
 ****
 27  28  29  32  34  39  40  41  42  43  44  45  46  47  48  49 0
 3-21G
 ****


