%nproc=1
%NoSave
%Mem=1900MB
#P OB98/GEN NMR

erre ene a

0 1
  C     -308.023    -279.276     413.826
  O     -308.641    -279.269     415.099
  H     -307.446    -278.352     413.712
  H     -308.780    -279.317     413.040
  H     -307.343    -280.130     413.744
  P     -309.523    -280.561     415.473
  C     -307.635    -281.557     416.941
  O     -308.438    -281.702     415.775
  C     -308.303    -282.228     418.141
  O     -308.529    -283.628     417.879
  C     -307.487    -282.175     419.428
  O     -307.635    -280.917     420.071
  C     -308.138    -283.296     420.227
  O     -309.368    -282.824     420.813
  C     -308.445    -284.346     419.141
  N     -306.274    -288.422     421.408
  C     -307.111    -287.473     421.873
  N     -307.607    -286.394     421.233
  C     -307.165    -286.348     419.963
  C     -306.306    -287.244     419.345
  C     -305.857    -288.330     420.120
  N     -305.006    -289.303     419.628
  N     -306.066    -286.867     418.032
  C     -306.810    -285.788     417.852
  N     -307.466    -285.416     419.005
  O     -310.600    -280.914     414.506
  O     -310.028    -280.169     416.944
  H     -309.133    -282.165     421.497
  H     -309.324    -279.719     417.438
  H     -307.427    -287.595     422.910
  H     -306.919    -285.260     416.917
  H     -309.415    -284.834     419.308
  H     -307.508    -283.643     421.048
  H     -306.431    -282.431     419.247
  H     -309.287    -281.765     418.283
  H     -307.465    -280.498     417.155
  H     -304.603    -289.943     420.294
  H     -304.605    -289.162     418.716
  H     -306.667    -282.027     416.734
  P     -306.824    -280.582     421.416
  C     -304.529    -279.856     420.512
  O     -305.276    -280.903     421.114
  O     -307.363    -281.221     422.651
  O     -306.852    -278.987     421.513
  H     -306.957    -278.712     422.443
  H     -303.521    -280.180     420.359
  H     -304.535    -278.999     421.153
  H     -304.968    -279.600     419.571

 6  7  8  9  10  11  12  13  14  15  25  28  32  33  34  35 0
 6-311+G(2d,p)
 ****
 36  39  40 0
 6-311+G(2d,p)
 ****
 1  2  3  4  5  16  17  18  19  20  21  22  23  24 0
 3-21G
 ****
 26  27  29  30  31  37  38  41  42  43  44  45  46  47 0
 3-21G
 ****
 48 0
 3-21G
 ****


