%nproc=1
%NoSave
%Mem=1900MB
#P OB98/GEN NMR

erre ene a

0 1
  C      247.511    -183.623     305.431
  O      246.935    -184.819     305.923
  H      248.598    -183.733     305.426
  H      247.240    -182.784     306.078
  H      247.171    -183.431     304.411
  P      245.334    -184.866     305.991
  C      245.349    -187.247     304.931
  O      244.935    -186.421     306.006
  C      244.332    -188.368     304.696
  O      244.262    -189.193     305.900
  C      242.905    -187.871     304.414
  O      242.248    -188.844     303.592
  C      242.293    -187.882     305.806
  O      240.889    -187.768     305.746
  C      242.879    -189.193     306.323
  N      242.146    -192.515     310.145
  C      242.239    -192.690     308.812
  N      242.450    -191.756     307.857
  C      242.585    -190.538     308.407
  C      242.519    -190.206     309.749
  C      242.283    -191.263     310.648
  N      242.176    -191.086     312.001
  N      242.702    -188.842     309.927
  C      242.874    -188.365     308.711
  N      242.804    -189.349     307.759
  O      244.886    -184.370     304.538
  O      244.715    -184.047     307.075
  H      240.488    -187.934     306.625
  H      244.702    -183.414     304.554
  H      242.135    -193.712     308.462
  H      243.048    -187.322     308.458
  H      242.395    -190.065     305.872
  H      242.651    -187.037     306.399
  H      242.877    -186.896     303.921
  H      244.696    -189.019     303.892
  H      246.326    -187.673     305.174
  H      245.439    -186.639     304.019
  H      241.988    -191.895     312.575
  H      242.259    -190.154     312.388
  P      241.956    -188.501     302.048
  C      241.437    -190.996     301.465
  O      241.015    -189.641     301.433
  O      243.366    -188.829     301.363
  O      241.547    -187.089     301.768
  H      243.484    -188.276     300.565
  H      240.689    -191.613     301.014
  H      241.585    -191.300     302.480
  H      242.355    -191.096     300.925

 6  7  8  9  10  11  12  13  14  15  25  28  32  33  34  35 0
 6-311+G(2d,p)
 ****
 36  37  40 0
 6-311+G(2d,p)
 ****
 1  2  3  4  5  16  17  18  19  20  21  22  23  24 0
 3-21G
 ****
 26  27  29  30  31  38  39 41  42  43  44  45  46  47  48 0
 3-21G
 ****


