%nproc=1
%NoSave
%Mem=1900MB
#P OB98/GEN NMR

erre ene a

0 1
  C     -391.512     227.888     472.925
  O     -390.864     226.637     472.818
  H     -392.490     227.735     473.390
  H     -391.668     228.319     471.932
  H     -390.934     228.578     473.549
  P     -389.346     226.600     472.309
  C     -388.654     225.999     474.720
  O     -388.410     226.830     473.590
  C     -388.129     226.681     475.986
  O     -388.800     227.948     476.184
  C     -388.377     225.885     477.262
  O     -387.467     224.807     477.380
  C     -388.213     226.963     478.317
  O     -386.830     227.208     478.598
  C     -388.858     228.185     477.612
  N     -390.231     228.429     478.044
  C     -390.394     229.198     479.203
  O     -389.444     229.622     479.858
  N     -391.682     229.427     479.590
  C     -392.803     228.891     479.020
  O     -393.932     229.052     479.459
  C     -392.578     228.075     477.819
  C     -391.325     227.885     477.392
  O     -389.035     227.474     471.137
  O     -389.099     225.050     471.961
  H     -386.799     227.942     479.244
  H     -389.111     224.934     470.991
  H     -391.819     229.965     480.431
  H     -393.439     227.638     477.327
  H     -391.137     227.277     476.507
  H     -388.272     229.089     477.802
  H     -388.697     226.702     479.252
  H     -389.405     225.514     477.284
  H     -387.058     226.879     475.852
  H     -388.130     225.050     474.576
  H     -389.731     225.807     474.798
  P     -388.005     223.324     477.655
  C     -386.460     222.285     475.884
  O     -387.810     222.465     476.317
  O     -389.372     223.248     478.259
  O     -386.916     222.700     478.647
  H     -387.340     222.458     479.493
  H     -386.448     221.701     474.988
  H     -385.905     221.780     476.647
  H     -386.016     223.240     475.693

 6  7  8  9  10  11  12  13  14  15  16  26  31  32  33  34  35 0
 6-311+G(2d,p)
 ****
 36  37 0
 6-311+G(2d,p)
 ****
 1  2  3  4  5  17  18  19  20  21  22  23  24  25 0
 3-21G
 ****
 27  28  29  30  38  39  40  41  42  43  44  45 0
 3-21G
 ****


