%nproc=1
%NoSave
%Mem=1900MB
#P OB98/GEN NMR

erre ene a

0 1
  C      348.742    -195.706      60.546
  O      349.891    -194.964      60.899
  H      348.936    -196.763      60.737
  H      348.532    -195.578      59.480
  H      347.874    -195.397      61.134
  P      349.785    -193.369      60.994
  C      351.714    -192.863      59.359
  O      351.257    -192.797      60.701
  C      352.544    -194.129      59.125
  O      351.639    -195.264      58.986
  C      353.415    -194.082      57.859
  O      354.582    -194.874      58.114
  C      352.522    -194.766      56.843
  O      353.255    -195.194      55.716
  C      351.902    -195.870      57.705
  N      350.697    -196.439      57.106
  C      350.855    -197.089      55.890
  O      351.934    -197.174      55.301
  N      349.718    -197.613      55.334
  C      348.456    -197.489      55.839
  O      347.466    -197.951      55.282
  C      348.344    -196.753      57.107
  C      349.451    -196.270      57.680
  O      349.144    -192.835      62.230
  O      348.981    -192.947      59.674
  H      352.648    -195.572      55.041
  H      348.462    -192.136      59.843
  H      349.818    -198.097      54.455
  H      347.354    -196.630      57.530
  H      349.401    -195.722      58.612
  H      352.620    -196.689      57.863
  H      351.744    -194.082      56.488
  H      353.696    -193.067      57.567
  H      353.154    -194.320      60.016
  H      352.331    -191.977      59.168
  H      350.856    -192.852      58.678
  P      356.060    -194.245      58.106
  C      357.375    -196.236      57.128
  O      357.129    -195.432      58.279
  O      356.246    -193.110      59.062
  O      356.286    -193.758      56.599
  H      356.911    -193.007      56.583
  H      358.099    -196.987      57.366
  H      357.746    -195.620      56.336
  H      356.464    -196.705      56.819

 6  7  8  9  10  11  12  13  14  15  16  26  31  32  33  34  35 0
 6-311+G(2d,p)
 ****
 36  37 0
 6-311+G(2d,p)
 ****
 1  2  3  4  5  17  18  19  20  21  22  23  24  25 0
 3-21G
 ****
 27  28  29  30  38  39  40  41  42  43  44  45 0
 3-21G
 ****


