%nproc=1
%NoSave
%Mem=1900MB
#P OB98/GEN NMR

erre ene a

0 1
  C     -391.198    -407.967     256.566
  O     -391.461    -406.569     256.394
  P     -393.006    -406.146     256.288
  C     -393.340    -404.413     254.384
  O     -393.070    -404.631     255.758
  C     -392.858    -403.032     253.945
  O     -393.600    -401.962     254.581
  C     -391.397    -402.765     254.264
  O     -390.569    -403.389     253.304
  C     -391.334    -401.241     254.214
  O     -391.161    -400.776     252.862
  C     -392.707    -400.836     254.761
  N     -391.037    -397.416     258.118
  C     -390.686    -397.600     256.793
  N     -389.784    -396.742     256.288
  N     -391.181    -398.545     256.040
  C     -392.079    -399.340     256.674
  C     -392.523    -399.245     257.976
  C     -391.959    -398.193     258.807
  O     -392.250    -397.972     259.977
  N     -393.481    -400.181     258.249
  C     -393.518    -400.927     257.157
  N     -392.732    -400.415     256.149
  O     -393.462    -406.040     257.816
  O     -393.837    -407.129     255.534
  H     -390.497    -401.335     252.421
  H     -394.074    -406.774     258.033
  H     -390.605    -396.685     258.657
  H     -394.112    -401.820     257.037
  H     -393.135    -400.001     254.183
  H     -390.489    -400.857     254.792
  H     -389.357    -395.979     256.812
  H     -391.163    -403.124     255.279
  H     -389.524    -396.849     255.311
  H     -393.029    -402.944     252.861
  H     -394.415    -404.505     254.190
  H     -392.850    -405.201     253.793
  P     -389.357    -404.298     253.820
  C     -387.743    -403.619     251.905
  O     -388.442    -404.660     252.554
  O     -390.059    -405.682     254.200
  O     -388.623    -403.727     254.999
  H     -389.726    -405.995     255.056
  H     -386.834    -404.022     251.460
  H     -387.472    -402.805     252.590
  H     -388.366    -403.203     251.094
  H     -390.142    -408.127     256.623
  H     -391.596    -408.510     255.734
  H     -391.660    -408.308     257.469

 3  4  5  6  7  8  9  10  11  12  23  26  30  31 0
 6-311+G(2d,p)
 ****
 33  35  36  37  38 0
 6-311+G(2d,p)
 ****
 1  2  13  14  15  16  17  18  19  20  21  22  24  25 0
 3-21G
 ****
 27  28  29  32  34  39  40  41  42  43  44  45  46  47  48  49 0
 3-21G
 ****


