%nproc=1
%NoSave
%Mem=1900MB
#P OB98/GEN NMR

erre ene a

0 1
  C      -48.591      56.331     -10.701
  O      -47.551      57.109     -10.147
  H      -49.166      56.952     -11.393
  H      -49.256      55.988      -9.904
  H      -48.189      55.473     -11.247
  P      -46.403      56.329      -9.346
  C      -45.383      54.719     -11.103
  O      -45.259      55.953     -10.411
  C      -44.034      54.301     -11.689
  O      -43.635      55.281     -12.682
  C      -42.910      54.205     -10.650
  O      -42.078      53.087     -10.971
  C      -42.135      55.495     -10.848
  O      -40.776      55.388     -10.428
  C      -42.306      55.722     -12.346
  N      -38.887      59.170     -13.693
  C      -38.756      57.807     -13.505
  N      -37.525      57.284     -13.697
  N      -39.744      57.026     -13.157
  C      -40.924      57.680     -13.035
  C      -41.182      59.022     -13.189
  C      -40.073      59.881     -13.545
  O      -40.122      61.096     -13.703
  N      -42.503      59.305     -12.945
  C      -43.040      58.136     -12.645
  N      -42.124      57.121     -12.693
  O      -47.084      54.919      -9.014
  O      -45.913      57.003      -8.108
  H      -40.393      54.599     -10.867
  H      -47.182      54.820      -8.048
  H      -38.089      59.727     -13.947
  H      -44.075      57.973     -12.379
  H      -41.590      55.144     -12.941
  H      -42.607      56.301     -10.273
  H      -36.731      57.819     -14.012
  H      -43.279      54.100      -9.628
  H      -37.412      56.282     -13.602
  H      -44.164      53.348     -12.217
  H      -46.111      54.837     -11.912
  H      -45.742      53.950     -10.410
  P      -42.397      51.703     -10.226
  C      -44.189      50.317     -11.483
  O      -42.809      50.615     -11.335
  O      -43.774      52.007      -9.467
  O      -41.334      51.270      -9.273
  H      -43.614      52.083      -8.509
  H      -44.315      49.582     -12.251
  H      -44.719      51.207     -11.751
  H      -44.573      49.937     -10.559

 6  7  8  9  10  11  12  13  14  15  26  29  33  34 0
 6-311+G(2d,p)
 ****
 36  38  39  40  41 0
 6-311+G(2d,p)
 ****
 1  2  3  4  5  16  17  18  19  20  21  22  23  24  25 0
 3-21G
 ****
 27  28  30  31  32  35  37  42  43  44  45  46  47 0
 3-21G
 ****
 48  49 0
 3-21G
 ****


