%nproc=1
%NoSave
%Mem=1900MB
#P OB98/GEN NMR

erre ene a

0 1
  C      -26.704    -207.988     -37.746
  O      -26.248    -207.692     -39.047
  H      -27.641    -207.445     -37.574
  H      -25.976    -207.666     -36.996
  H      -26.898    -209.061     -37.641
  P      -24.793    -208.205     -39.500
  C      -23.715    -205.976     -38.819
  O      -23.757    -207.377     -38.575
  C      -22.298    -205.422     -38.646
  O      -21.810    -205.739     -37.315
  C      -21.286    -205.979     -39.658
  O      -20.511    -204.904     -40.198
  C      -20.403    -206.893     -38.818
  O      -19.113    -207.079     -39.395
  C      -20.442    -206.178     -37.460
  N      -20.025    -207.034     -36.353
  C      -18.700    -207.498     -36.381
  O      -17.968    -207.211     -37.333
  N      -18.257    -208.300     -35.365
  C      -19.074    -208.659     -34.424
  N      -18.575    -209.468     -33.446
  C      -20.490    -208.234     -34.373
  C      -20.894    -207.421     -35.358
  O      -24.526    -208.122     -40.968
  O      -24.686    -209.692     -38.911
  H      -18.683    -207.848     -38.958
  H      -23.980    -210.187     -39.395
  H      -21.137    -208.567     -33.574
  H      -21.913    -207.051     -35.397
  H      -19.795    -205.286     -37.472
  H      -20.880    -207.879     -38.731
  H      -21.751    -206.514     -40.479
  H      -22.351    -204.322     -38.698
  H      -17.595    -209.740     -33.517
  H      -24.406    -205.480     -38.128
  H      -19.117    -209.816     -32.667
  H      -24.044    -205.797     -39.849
  P      -20.888    -204.444     -41.691
  C      -18.620    -205.043     -42.800
  O      -20.013    -205.319     -42.717
  O      -20.248    -202.978     -41.794
  O      -22.360    -204.426     -41.963
  H      -20.936    -202.298     -41.675
  H      -18.169    -205.697     -43.517
  H      -18.168    -205.198     -41.843
  H      -18.475    -204.027     -43.103

 6  7  8  9  10  11  12  13  14  15  16  26  30  31  32  33  35 0
 6-311+G(2d,p)
 ****
 37  38 0
 6-311+G(2d,p)
 ****
 1  2  3  4  5  17  18  19  20  21  22  23  24  25 0
 3-21G
 ****
 27  28  29  34  36  39  40  41  42  43  44  45  46 0
 3-21G
 ****


