%nproc=1
%NoSave
%Mem=1900MB
#P OB98/GEN NMR

erre ene a

0 1
  C       20.681     -70.444    -136.487
  O       21.763     -69.981    -135.669
  P       21.973     -68.400    -135.523
  C       20.094     -67.564    -133.931
  O       21.449     -67.960    -134.073
  C       20.007     -66.213    -133.215
  O       18.750     -65.550    -133.478
  C       20.114     -66.316    -131.700
  O       21.467     -66.392    -131.271
  C       19.511     -64.987    -131.273
  O       20.492     -63.938    -131.409
  C       18.382     -64.801    -132.292
  N       14.156     -63.450    -129.860
  C       15.267     -62.702    -130.198
  N       15.246     -61.397    -129.842
  N       16.306     -63.187    -130.828
  C       16.179     -64.497    -131.136
  C       15.132     -65.344    -130.855
  C       13.997     -64.800    -130.144
  O       12.992     -65.418    -129.807
  N       15.374     -66.609    -131.323
  C       16.555     -66.526    -131.905
  N       17.095     -65.267    -131.802
  O       20.853     -67.800    -136.498
  O       23.338     -67.924    -135.893
  H       20.032     -63.100    -131.211
  H       21.137     -66.930    -136.835
  H       13.388     -63.027    -129.370
  H       17.058     -67.340    -132.408
  H       18.254     -63.754    -132.589
  H       19.197     -64.990    -130.226
  H       14.460     -60.948    -129.400
  H       19.511     -67.146    -131.314
  H       16.037     -60.826    -130.110
  H       20.820     -65.577    -133.590
  H       19.533     -68.317    -133.371
  H       19.629     -67.525    -134.920
  P       21.828     -67.437    -130.109
  C       22.120     -69.728    -131.293
  O       22.740     -68.562    -130.791
  O       20.430     -68.174    -129.848
  O       22.369     -66.822    -128.866
  H       20.365     -68.442    -128.913
  H       22.859     -70.300    -131.860
  H       21.290     -69.473    -131.956
  H       21.759     -70.347    -130.466
  H       20.667     -71.514    -136.488
  H       20.812     -70.088    -137.487
  H       19.755     -70.076    -136.096

 3  4  5  6  7  8  9  10  11  12  23  26  30  31 0
 6-311+G(2d,p)
 ****
 33  35  36  37  38 0
 6-311+G(2d,p)
 ****
 1  2  13  14  15  16  17  18  19  20  21  22  24  25 0
 3-21G
 ****
 27  28  29  32  34  39  40  41  42  43  44  45  46  47  48  49 0
 3-21G
 ****


