%nproc=1
%NoSave
%Mem=1900MB
#P OB98/GEN NMR

erre ene a

0 1
  C     -232.763    -291.646    -173.185
  O     -233.299    -292.402    -172.116
  H     -233.129    -290.618    -173.105
  H     -233.092    -292.064    -174.141
  H     -231.669    -291.640    -173.137
  P     -232.754    -293.897    -171.944
  C     -230.542    -293.411    -170.614
  O     -231.153    -293.811    -171.833
  C     -229.641    -294.528    -170.091
  O     -228.769    -295.025    -171.128
  C     -228.686    -294.087    -168.994
  O     -229.337    -293.833    -167.771
  C     -227.742    -295.280    -168.958
  O     -228.320    -296.372    -168.229
  C     -227.625    -295.625    -170.462
  N     -226.367    -295.176    -171.043
  C     -225.208    -295.735    -170.492
  O     -225.289    -296.560    -169.581
  N     -223.990    -295.321    -170.966
  C     -223.928    -294.448    -171.923
  N     -222.691    -294.074    -172.342
  C     -225.127    -293.855    -172.550
  C     -226.299    -294.256    -172.062
  O     -232.976    -294.521    -173.399
  O     -233.377    -294.680    -170.834
  H     -229.098    -296.666    -168.743
  H     -232.579    -293.996    -174.113
  H     -225.028    -293.136    -173.352
  H     -227.226    -293.867    -172.467
  H     -227.703    -296.709    -170.616
  H     -226.794    -295.041    -168.467
  H     -228.108    -293.215    -169.324
  H     -230.282    -295.355    -169.758
  H     -221.892    -294.489    -171.873
  H     -231.297    -293.142    -169.870
  H     -222.522    -293.379    -173.055
  H     -229.948    -292.514    -170.819
  P     -228.990    -292.518    -166.920
  C     -231.033    -291.217    -167.793
  O     -229.609    -291.281    -167.731
  O     -227.552    -292.364    -166.550
  O     -229.975    -292.625    -165.660
  H     -230.922    -292.644    -165.886
  H     -231.327    -290.356    -168.356
  H     -231.430    -291.148    -166.802
  H     -231.409    -292.099    -168.268

 6  7  8  9  10  11  12  13  14  15  16  26  30  31  32  33  35 0
 6-311+G(2d,p)
 ****
 37  38 0
 6-311+G(2d,p)
 ****
 1  2  3  4  5  17  18  19  20  21  22  23  24  25 0
 3-21G
 ****
 27  28  29  34  36  39  40  41  42  43  44  45  46 0
 3-21G
 ****


