%nproc=1
%NoSave
%Mem=1900MB
#P OB98/GEN NMR

erre ene a

0 1
  C      289.807     431.745    -489.827
  O      290.384     430.810    -488.933
  H      288.729     431.568    -489.913
  H      289.968     432.753    -489.435
  H      290.279     431.667    -490.812
  P      290.278     429.264    -489.348
  C      288.638     428.499    -487.485
  O      289.966     428.457    -487.996
  C      288.628     428.077    -486.018
  O      288.819     426.653    -485.914
  C      289.727     428.705    -485.165
  O      289.398     430.028    -484.773
  C      289.737     427.753    -483.976
  O      288.646     428.072    -483.093
  C      289.495     426.396    -484.648
  N      293.067     423.355    -482.604
  C      291.923     423.871    -482.097
  N      291.015     424.654    -482.712
  C      291.366     424.880    -483.990
  C      292.484     424.408    -484.651
  C      293.367     423.608    -483.898
  N      294.570     423.143    -484.411
  N      292.513     424.865    -485.953
  C      291.442     425.618    -486.066
  N      290.713     425.650    -484.909
  O      291.800     428.880    -489.681
  O      289.374     428.976    -490.499
  H      288.490     427.282    -482.540
  H      291.945     428.938    -490.643
  H      291.715     423.626    -481.060
  H      291.156     426.156    -486.958
  H      288.831     425.751    -484.056
  H      290.659     427.811    -483.390
  H      290.702     428.659    -485.662
  H      287.633     428.308    -485.609
  H      288.005     427.822    -488.063
  H      295.288     423.011    -483.705
  H      294.857     423.581    -485.276
  H      288.258     429.522    -487.589
  P      290.443     431.195    -485.121
  C      291.434     431.754    -482.797
  O      290.528     432.135    -483.826
  O      289.648     432.076    -486.185
  O      291.757     430.729    -485.674
  H      290.166     432.158    -487.010
  H      291.388     432.466    -481.999
  H      292.429     431.724    -483.191
  H      291.167     430.786    -482.427

 6  7  8  9  10  11  12  13  14  15  25  28  32  33  34  35 0
 6-311+G(2d,p)
 ****
 36  39  40 0
 6-311+G(2d,p)
 ****
 1  2  3  4  5  16  17  18  19  20  21  22  23  24 0
 3-21G
 ****
 26  27  29  30  31  37  38  41  42  43  44  45  46  47  48 0
 3-21G
 ****


