%nproc=1
%NoSave
%Mem=1900MB
#P OB98/GEN NMR

erre ene a

0 1
  C      -71.285      36.310       5.376
  O      -71.474      35.766       6.669
  P      -71.304      36.742       7.937
  C      -73.788      37.539       7.581
  O      -72.429      37.878       7.793
  C      -74.684      38.247       8.600
  O      -74.515      39.687       8.459
  C      -76.186      37.948       8.451
  O      -76.748      37.929       9.773
  C      -76.696      39.144       7.661
  O      -78.095      39.347       7.826
  C      -75.825      40.262       8.259
  N      -75.740      41.443       7.399
  C      -76.322      42.625       7.858
  O      -76.919      42.726       8.925
  N      -76.218      43.710       7.014
  C      -75.663      43.706       5.766
  O      -75.612      44.700       5.042
  C      -75.108      42.419       5.313
  C      -75.161      41.370       6.139
  O      -69.941      37.491       7.573
  O      -71.304      36.030       9.248
  H      -69.840      37.658       6.617
  H      -78.302      39.253       8.776
  H      -76.598      44.586       7.339
  H      -74.673      42.376       4.321
  H      -74.759      40.413       5.830
  H      -76.203      40.555       9.245
  H      -76.486      38.993       6.604
  H      -76.364      36.987       7.961
  H      -74.339      37.979       9.609
  H      -73.911      36.454       7.694
  H      -74.077      37.807       6.557
  P      -78.046      37.011      10.041
  C      -76.542      34.901      10.417
  O      -77.624      35.497       9.740
  O      -78.930      37.401       8.757
  O      -78.759      37.278      11.326
  H      -78.431      37.362       7.924
  H      -76.628      33.810      10.342
  H      -76.533      35.172      11.480
  H      -75.602      35.217       9.956
  H      -71.431      35.545       4.642
  H      -70.291      36.698       5.294
  H      -71.990      37.098       5.214

 3  4  5  6  7  8  9  10  11  12  13  24  28  29  30  31  32 0
 6-311+G(2d,p)
 ****
 33  34 0
 6-311+G(2d,p)
 ****
 1  2  14  15  16  17  18  19  20  21  22  23  25  26  27 0
 3-21G
 ****
 35  36  37  38  39  40  41  42  43  44  45 0
 3-21G
 ****


