%nproc=1
%NoSave
%Mem=1900MB
#P OB98/GEN NMR

erre ene a

0 1
  C      -91.061      76.103      -3.696
  O      -90.661      77.385      -4.142
  H      -91.194      75.455      -4.566
  H      -92.010      76.164      -3.157
  H      -90.295      75.667      -3.049
  P      -90.405      78.524      -3.045
  C      -91.890      79.350      -1.101
  O      -91.846      78.890      -2.446
  C      -93.216      80.055      -0.833
  O      -93.328      81.240      -1.644
  C      -94.445      79.200      -1.138
  O      -94.709      78.310      -0.065
  C      -95.501      80.282      -1.293
  O      -95.894      80.767       0.005
  C      -94.719      81.369      -2.053
  N      -97.291      82.697      -6.214
  C      -97.567      82.947      -4.883
  N      -98.716      83.609      -4.626
  N      -96.798      82.565      -3.897
  C      -95.723      81.853      -4.304
  C      -95.352      81.527      -5.589
  C      -96.181      82.004      -6.677
  O      -95.964      81.820      -7.871
  N      -94.231      80.737      -5.606
  C      -93.902      80.616      -4.335
  N      -94.785      81.264      -3.502
  O      -89.618      79.717      -3.498
  O      -89.689      77.752      -1.842
  H      -96.232      79.998       0.499
  H      -88.719      77.793      -1.924
  H      -97.933      83.002      -6.927
  H      -93.039      80.077      -3.964
  H      -95.047      82.381      -1.787
  H      -96.401      79.934      -1.798
  H      -99.463      83.668      -5.307
  H      -94.346      78.671      -2.093
  H      -98.961      83.757      -3.655
  H      -93.216      80.381       0.216
  H      -91.053      80.042      -0.961
  H      -91.773      78.511      -0.407
  P      -94.920      76.739      -0.325
  C      -96.463      75.393      -1.902
  O      -96.202      76.645      -1.283
  O      -95.001      75.906       0.909
  O      -93.726      76.330      -1.304
  H      -92.900      76.063      -0.830
  H      -97.341      75.471      -2.509
  H      -96.615      74.648      -1.149
  H      -95.630      75.117      -2.514

 6  7  8  9  10  11  12  13  14  15  26  29  33  34 0
 6-311+G(2d,p)
 ****
 36  38  39  40  41 0
 6-311+G(2d,p)
 ****
 1  2  3  4  5  16  17  18  19  20  21  22  23  24  25 0
 3-21G
 ****
 27  28  30  31  32  35  37  42  43  44  45  46  47 0
 3-21G
 ****
 48  49 0
 3-21G
 ****


