%nproc=1
%NoSave
%Mem=1900MB
#P OB98/GEN NMR

erre ene a

0 1
  C      691.385     386.274     290.371
  O      692.253     385.180     290.192
  H      691.314     386.506     291.437
  H      690.384     386.031     289.999
  H      691.769     387.163     289.852
  P      692.664     384.749     288.708
  C      691.409     383.519     286.813
  O      691.573     383.666     288.217
  C      690.209     382.619     286.530
  O      688.990     383.227     287.035
  C      689.962     382.368     285.040
  O      690.895     381.449     284.503
  C      688.516     381.893     285.067
  O      688.445     380.503     285.403
  C      687.907     382.750     286.200
  N      687.125     383.872     285.663
  C      685.899     383.550     285.099
  O      685.467     382.404     285.035
  N      685.210     384.586     284.545
  C      685.677     385.864     284.375
  O      685.129     386.697     283.663
  C      686.942     386.166     285.049
  C      687.612     385.176     285.657
  O      694.088     384.346     288.517
  O      692.299     386.038     287.830
  H      693.122     386.534     287.628
  H      688.924     380.405     286.253
  H      684.331     384.356     284.088
  H      687.322     387.186     285.020
  H      688.569     385.364     286.130
  H      687.258     382.148     286.843
  H      688.033     382.037     284.097
  H      690.007     383.324     284.501
  H      690.356     381.667     287.059
  H      692.317     383.069     286.399
  H      691.263     384.509     286.368
  P      691.316     381.550     282.955
  C      689.859     382.041     280.895
  O      690.014     381.237     282.063
  O      692.529     380.768     282.575
  O      691.551     383.107     282.717
  H      692.424     383.236     282.265
  H      688.968     381.752     280.379
  H      690.704     381.904     280.253
  H      689.790     383.071     281.177

 6  7  8  9  10  11  12  13  14  15  16  27  31  32  33  34  35 0
 6-311+G(2d,p)
 ****
 36  37 0
 6-311+G(2d,p)
 ****
 1  2  3  4  5  17  18  19  20  21  22  23  24  25 0
 3-21G
 ****
 26  28  29  30  38  39  40  41  42  43  44  45 0
 3-21G
 ****


