%nproc=1
%NoSave
%Mem=1900MB
#P OB98/GEN NMR

erre ene a

0 1
  C      -28.074    -201.428    -137.360
  O      -27.469    -200.126    -137.312
  P      -26.957    -199.552    -135.900
  C      -29.140    -198.172    -135.473
  O      -28.233    -199.164    -135.009
  C      -30.026    -197.689    -134.320
  O      -29.228    -197.422    -133.144
  C      -30.766    -196.390    -134.601
  O      -31.888    -196.591    -135.446
  C      -31.143    -195.949    -133.190
  O      -32.336    -196.614    -132.744
  C      -29.920    -196.416    -132.376
  N      -29.032    -195.315    -132.014
  C      -29.509    -194.424    -131.058
  O      -30.637    -194.497    -130.572
  N      -28.656    -193.413    -130.704
  C      -27.425    -193.175    -131.246
  O      -26.712    -192.241    -130.900
  C      -27.009    -194.104    -132.310
  C      -27.821    -195.109    -132.642
  O      -26.391    -198.108    -136.314
  O      -25.900    -200.357    -135.218
  H      -32.094    -197.549    -132.592
  H      -25.686    -197.845    -135.695
  H      -28.971    -192.774    -129.990
  H      -26.051    -193.935    -132.783
  H      -27.528    -195.804    -133.424
  H      -30.249    -196.915    -131.457
  H      -31.334    -194.872    -133.127
  H      -30.080    -195.653    -135.034
  H      -30.733    -198.492    -134.076
  H      -29.772    -198.599    -136.256
  H      -28.568    -197.341    -135.897
  P      -31.676    -196.277    -137.009
  C      -31.961    -193.715    -136.567
  O      -31.157    -194.763    -137.069
  O      -33.195    -196.219    -137.513
  O      -30.830    -197.293    -137.699
  H      -33.794    -195.863    -136.834
  H      -32.558    -194.041    -135.711
  H      -32.624    -193.358    -137.358
  H      -31.310    -192.896    -136.251
  H      -28.355    -201.654    -138.367
  H      -28.943    -201.441    -136.736
  H      -27.375    -202.159    -137.012

 3  4  5  6  7  8  9  10  11  12  13  23  28  29  30  31  32 0
 6-311+G(2d,p)
 ****
 33  34 0
 6-311+G(2d,p)
 ****
 1  2  14  15  16  17  18  19  20  21  22  24  25  26 0
 3-21G
 ****
 27  35  36  37  38  39  40  41  42  43  44  45 0
 3-21G
 ****


