%nproc=1
%NoSave
%Mem=1900MB
#P OB98/GEN NMR

erre ene a

0 1
  C      221.434    -158.035    -238.574
  O      221.452    -159.393    -239.021
  P      220.522    -160.533    -238.382
  C      218.186    -161.513    -238.878
  O      219.361    -160.918    -239.418
  C      216.980    -161.334    -239.805
  O      216.707    -159.937    -240.020
  C      217.152    -161.932    -241.197
  O      217.018    -163.340    -241.171
  C      216.060    -161.198    -241.967
  O      214.780    -161.822    -241.774
  C      216.095    -159.800    -241.319
  N      216.796    -158.821    -242.137
  C      216.071    -158.259    -243.196
  O      214.927    -158.634    -243.438
  N      216.679    -157.302    -243.972
  C      217.919    -156.988    -243.755
  N      218.469    -156.027    -244.551
  C      218.747    -157.621    -242.708
  C      218.123    -158.516    -241.949
  O      220.029    -160.213    -237.006
  O      221.442    -161.848    -238.350
  H      214.136    -161.296    -242.288
  H      221.182    -162.401    -237.590
  H      219.783    -157.352    -242.583
  H      218.654    -159.024    -241.143
  H      215.075    -159.440    -241.133
  H      216.250    -161.178    -243.048
  H      218.137    -161.652    -241.600
  H      216.103    -161.775    -239.305
  H      217.873    -155.609    -245.256
  H      217.974    -161.033    -237.912
  H      219.420    -155.710    -244.468
  H      218.376    -162.577    -238.703
  P      218.259    -164.271    -241.578
  C      220.169    -165.472    -240.350
  O      218.918    -164.812    -240.226
  O      219.213    -163.674    -242.561
  O      217.564    -165.586    -242.182
  H      218.145    -165.959    -242.873
  H      220.686    -165.428    -239.391
  H      220.790    -164.995    -241.111
  H      219.995    -166.519    -240.619
  H      222.134    -157.462    -239.145
  H      221.702    -157.997    -237.539
  H      220.452    -157.630    -238.703

 3  4  5  6  7  8  9  10  11  12  13  23  27  28  29  30  32 0
 6-311+G(2d,p)
 ****
 34  35 0
 6-311+G(2d,p)
 ****
 1  2  14  15  16  17  18  19  20  21  22  24  25  26 0
 3-21G
 ****
 31  33  36  37  38  39  40  41  42  43  44  45  46 0
 3-21G
 ****


