%nproc=1
%NoSave
%Mem=1900MB
#P OB98/GEN NMR

erre ene a

0 1
  C     -192.355      21.910     -34.256
  O     -193.716      21.643     -33.978
  H     -192.195      21.834     -35.334
  H     -191.717      21.179     -33.751
  H     -192.092      22.920     -33.929
  P     -194.166      21.725     -32.441
  C     -195.292      19.383     -32.333
  O     -194.221      20.215     -31.904
  C     -195.877      18.641     -31.135
  O     -194.841      17.864     -30.489
  C     -196.431      19.557     -30.051
  O     -197.709      20.067     -30.378
  C     -196.437      18.622     -28.853
  O     -197.609      17.797     -28.837
  C     -195.187      17.766     -29.088
  N     -192.259      16.523     -25.096
  C     -193.242      15.854     -25.737
  N     -193.967      16.251     -26.804
  C     -193.569      17.464     -27.222
  C     -192.580      18.262     -26.672
  C     -191.903      17.744     -25.556
  N     -190.920      18.435     -24.887
  N     -192.487      19.459     -27.355
  C     -193.397      19.382     -28.305
  N     -194.072      18.194     -28.267
  O     -195.706      22.151     -32.538
  O     -193.378      22.673     -31.600
  H     -197.650      17.361     -29.710
  H     -195.789      23.109     -32.373
  H     -193.486      14.875     -25.333
  H     -193.607      20.156     -29.033
  H     -195.364      16.705     -28.871
  H     -196.415      19.186     -27.921
  H     -195.727      20.376     -29.855
  H     -196.649      17.949     -31.494
  H     -194.917      18.657     -33.061
  H     -196.055      20.006     -32.810
  H     -190.524      18.032     -24.054
  H     -190.726      19.393     -25.152
  P     -198.276      21.279     -29.495
  C     -200.305      20.237     -28.231
  O     -198.943      20.643     -28.185
  O     -199.528      21.815     -30.338
  O     -197.287      22.362     -29.221
  H     -199.598      22.785     -30.247
  H     -200.590      19.837     -27.280
  H     -200.429      19.488     -28.985
  H     -200.921      21.081     -28.462

 6  7  8  9  10  11  12  13  14  15  25  28  32  33  34  35 0
 6-311+G(2d,p)
 ****
 36  37  40 0
 6-311+G(2d,p)
 ****
 1  2  3  4  5  16  17  18  19  20  21  22  23  24 0
 3-21G
 ****
 26  27  29  30  31  38  39 41  42  43  44  45  46  47  48 0
 3-21G
 ****


