%nproc=1
%NoSave
%Mem=1900MB
#P OB98/GEN NMR

erre ene a

0 1
  C     -450.805     -42.784     -24.981
  O     -451.680     -42.937     -26.087
  H     -451.291     -42.161     -24.231
  H     -449.884     -42.289     -25.312
  H     -450.571     -43.757     -24.536
  P     -451.310     -44.077     -27.156
  C     -453.561     -45.309     -27.567
  O     -452.637     -44.332     -28.026
  C     -454.562     -45.650     -28.673
  O     -455.563     -44.628     -28.780
  C     -453.938     -45.804     -30.055
  O     -453.386     -47.097     -30.250
  C     -455.161     -45.590     -30.939
  O     -455.965     -46.796     -30.948
  C     -455.905     -44.471     -30.188
  N     -456.846     -40.780     -33.542
  C     -457.363     -42.057     -33.466
  N     -458.255     -42.407     -34.420
  N     -457.035     -42.924     -32.533
  C     -456.112     -42.443     -31.659
  C     -455.521     -41.196     -31.640
  C     -455.907     -40.250     -32.661
  O     -455.483     -39.100     -32.772
  N     -454.635     -41.077     -30.601
  C     -454.675     -42.257     -30.012
  N     -455.556     -43.125     -30.616
  O     -451.194     -45.391     -26.249
  O     -450.052     -43.837     -27.931
  H     -456.782     -46.588     -31.431
  H     -450.246     -45.589     -26.099
  H     -457.119     -40.153     -34.285
  H     -454.099     -42.528     -29.138
  H     -456.999     -44.565     -30.277
  H     -454.901     -45.370     -31.978
  H     -458.534     -41.794     -35.178
  H     -453.198     -45.007     -30.260
  H     -458.649     -43.342     -34.382
  H     -455.077     -46.582     -28.377
  H     -454.100     -44.914     -26.699
  H     -453.010     -46.208     -27.270
  P     -451.908     -47.210     -30.866
  C     -451.779     -49.689     -30.109
  O     -451.649     -48.768     -31.181
  O     -450.974     -46.926     -29.596
  O     -451.609     -46.271     -31.986
  H     -450.519     -46.067     -29.698
  H     -451.580     -50.679     -30.463
  H     -452.774     -49.643     -29.718
  H     -451.081     -49.439     -29.337

 6  7  8  9  10  11  12  13  14  15  26  29  33  34 0
 6-311+G(2d,p)
 ****
 36  38  39  40  41 0
 6-311+G(2d,p)
 ****
 1  2  3  4  5  16  17  18  19  20  21  22  23  24  25 0
 3-21G
 ****
 27  28  30  31  32  35  37  42  43  44  45  46  47 0
 3-21G
 ****
 48  49 0
 3-21G
 ****


