%nproc=1
%NoSave
%Mem=1900MB
#P OB98/GEN NMR

erre ene a

0 1
  C     -328.328       6.282     287.719
  O     -326.972       6.088     287.370
  H     -328.472       5.963     288.754
  H     -328.972       5.682     287.070
  H     -328.594       7.339     287.633
  P     -326.551       6.515     285.881
  C     -327.188       4.450     284.424
  O     -327.552       5.737     284.897
  C     -328.236       3.930     283.432
  O     -329.485       3.699     284.148
  C     -328.556       4.914     282.293
  O     -328.958       4.147     281.144
  C     -329.757       5.658     282.854
  O     -330.419       6.389     281.848
  C     -330.504       4.487     283.490
  N     -335.389       5.886     284.059
  C     -334.691       5.478     282.977
  N     -333.395       5.111     282.906
  C     -332.814       5.172     284.115
  C     -333.402       5.558     285.312
  C     -334.753       5.936     285.255
  N     -335.465       6.357     286.354
  N     -332.484       5.496     286.347
  C     -331.368       5.077     285.784
  N     -331.517       4.878     284.439
  O     -325.152       5.772     285.668
  O     -326.448       7.984     285.639
  H     -330.927       5.792     281.261
  H     -324.416       6.381     285.872
  H     -335.247       5.448     282.042
  H     -330.428       4.912     286.299
  H     -330.981       3.851     282.735
  H     -329.448       6.380     283.615
  H     -327.714       5.557     282.025
  H     -327.909       2.961     283.039
  H     -327.121       3.770     285.282
  H     -326.214       4.501     283.929
  H     -336.428       6.624     286.224
  H     -335.000       6.414     287.247
  P     -327.845       3.702     280.074
  C     -328.579       5.266     278.108
  O     -327.590       4.923     279.063
  O     -328.666       2.678     279.148
  O     -326.627       3.045     280.634
  H     -328.054       2.025     278.761
  H     -328.239       6.097     277.525
  H     -329.485       5.531     278.612
  H     -328.760       4.430     277.465

 6  7  8  9  10  11  12  13  14  15  25  28  32  33  34  35 0
 6-311+G(2d,p)
 ****
 36  37  40 0
 6-311+G(2d,p)
 ****
 1  2  3  4  5  16  17  18  19  20  21  22  23  24 0
 3-21G
 ****
 26  27  29  30  31  38  39 41  42  43  44  45  46  47  48 0
 3-21G
 ****


