%nproc=1
%NoSave
%Mem=1900MB
#P OB98/GEN NMR

erre ene a

0 1
  C      -34.407    -642.242     -60.335
  O      -35.002    -641.612     -61.468
  P      -36.517    -641.090     -61.338
  C      -35.835    -638.679     -61.971
  O      -36.498    -639.510     -61.021
  C      -36.630    -637.390     -62.228
  O      -37.813    -637.723     -63.001
  C      -37.160    -636.689     -60.965
  O      -36.319    -635.716     -60.342
  C      -38.362    -635.933     -61.517
  O      -37.931    -634.693     -62.100
  C      -38.906    -636.856     -62.599
  N      -43.944    -636.814     -61.683
  C      -43.096    -635.841     -62.127
  N      -41.775    -635.935     -62.319
  C      -41.321    -637.189     -62.069
  C      -42.083    -638.254     -61.608
  C      -43.448    -638.036     -61.396
  N      -44.309    -639.009     -60.943
  N      -41.274    -639.378     -61.439
  C      -40.052    -638.973     -61.762
  N      -40.044    -637.653     -62.161
  O      -37.417    -641.908     -60.472
  O      -37.024    -641.125     -62.868
  H      -38.703    -634.344     -62.589
  H      -37.951    -641.416     -62.900
  H      -43.532    -634.870     -62.333
  H      -39.171    -639.589     -61.723
  H      -39.220    -636.312     -63.494
  H      -39.087    -635.674     -60.740
  H      -37.489    -637.428     -60.210
  H      -36.030    -636.696     -62.817
  H      -35.689    -639.208     -62.914
  H      -45.272    -638.747     -60.789
  H      -43.940    -639.912     -60.688
  H      -34.836    -638.469     -61.567
  P      -36.172    -635.644     -58.743
  C      -33.847    -636.855     -58.791
  O      -35.188    -636.851     -58.341
  O      -37.466    -635.619     -57.991
  O      -35.275    -634.342     -58.530
  H      -34.349    -634.437     -58.842
  H      -33.292    -637.615     -58.260
  H      -33.366    -635.876     -58.637
  H      -33.823    -637.102     -59.873
  H      -33.405    -642.532     -60.574
  H      -34.976    -643.108     -60.069
  H      -34.394    -641.558     -59.512

 3  4  5  6  7  8  9  10  11  12  22  25  29  30  31  32 0
 6-311+G(2d,p)
 ****
 33  36  37 0
 6-311+G(2d,p)
 ****
 1  2  13  14  15  16  17  18  19  20  21  23  24  26 0
 3-21G
 ****
 27  28  34  35  38  39  40  41  42  43  44  45  46  47  48 0
 3-21G
 ****


