%nproc=1
%NoSave
%Mem=1900MB
#P OB98/GEN NMR

erre ene a

0 1
  C       57.190    -911.210     204.472
  O       56.156    -912.181     204.557
  P       55.771    -912.727     206.021
  C       53.790    -914.224     206.889
  O       54.319    -913.396     205.866
  C       52.687    -915.142     206.312
  O       51.535    -914.351     205.966
  C       53.088    -915.869     205.036
  O       53.935    -916.971     205.292
  C       51.719    -916.233     204.469
  O       51.199    -917.394     205.130
  C       50.883    -914.990     204.852
  N       50.688    -914.059     203.742
  C       49.653    -914.346     202.859
  O       48.921    -915.335     202.988
  N       49.491    -913.478     201.814
  C       50.291    -912.407     201.521
  O       50.127    -911.688     200.545
  C       51.392    -912.169     202.470
  C       51.541    -912.993     203.512
  O       55.496    -911.351     206.787
  O       56.825    -913.590     206.625
  H       55.213    -910.648     206.175
  H       50.253    -917.459     204.877
  H       48.733    -913.658     201.173
  H       52.060    -911.341     202.275
  H       52.354    -912.835     204.221
  H       49.887    -915.302     205.215
  H       51.740    -916.444     203.392
  H       53.593    -915.173     204.342
  H       52.401    -915.850     207.093
  H       53.359    -913.596     207.675
  H       54.592    -914.829     207.318
  P       54.290    -917.923     204.044
  C       56.478    -918.436     202.713
  O       55.850    -917.702     203.743
  O       53.540    -917.155     202.854
  O       53.861    -919.342     204.236
  H       53.649    -916.193     202.896
  H       57.390    -917.911     202.412
  H       55.833    -918.537     201.830
  H       56.741    -919.433     203.081
  H       57.341    -910.938     203.448
  H       58.096    -911.618     204.870
  H       56.912    -910.343     205.034

 3  4  5  6  7  8  9  10  11  12  13  24  28  29  30  31  32 0
 6-311+G(2d,p)
 ****
 33  34 0
 6-311+G(2d,p)
 ****
 1  2  14  15  16  17  18  19  20  21  22  23  25  26  27 0
 3-21G
 ****
 35  36  37  38  39  40  41  42  43  44  45 0
 3-21G
 ****


