%nproc=1
%NoSave
%Mem=1900MB
#P OB98/GEN NMR

erre ene a

0 1
  C     -595.187     495.807     166.688
  O     -594.972     496.230     168.024
  H     -594.700     494.837     166.545
  H     -594.761     496.523     165.979
  H     -596.261     495.692     166.501
  P     -595.365     497.738     168.407
  C     -593.056     498.776     167.875
  O     -594.430     498.673     167.497
  C     -592.567     500.228     167.790
  O     -593.032     500.828     166.565
  C     -593.092     501.121     168.902
  O     -592.567     500.825     170.177
  C     -592.916     502.515     168.318
  O     -591.615     503.060     168.530
  C     -593.122     502.252     166.801
  N     -594.391     502.793     166.322
  C     -594.423     504.174     166.122
  O     -593.464     504.914     166.349
  N     -595.615     504.690     165.688
  C     -596.766     503.977     165.493
  O     -597.821     504.511     165.145
  C     -596.682     502.532     165.749
  C     -595.516     502.018     166.150
  O     -595.308     498.074     169.873
  O     -596.813     497.931     167.758
  H     -591.577     503.899     168.032
  H     -597.275     498.718     168.145
  H     -595.653     505.684     165.529
  H     -597.585     501.942     165.604
  H     -595.432     500.947     166.341
  H     -592.321     502.720     166.221
  H     -593.636     503.221     168.734
  H     -594.178     500.961     168.983
  H     -591.468     500.223     167.773
  H     -592.468     498.158     167.185
  H     -592.930     498.391     168.898
  P     -593.438     500.875     171.519
  C     -592.877     503.238     172.453
  O     -593.839     502.408     171.810
  O     -592.965     500.030     172.668
  O     -594.841     500.255     171.005
  H     -595.218     499.753     171.750
  H     -593.281     504.221     172.579
  H     -591.993     503.290     171.853
  H     -592.634     502.827     173.411

 6  7  8  9  10  11  12  13  14  15  16  26  31  32  33  34  35 0
 6-311+G(2d,p)
 ****
 36  37 0
 6-311+G(2d,p)
 ****
 1  2  3  4  5  17  18  19  20  21  22  23  24  25 0
 3-21G
 ****
 27  28  29  30  38  39  40  41  42  43  44  45 0
 3-21G
 ****


