%nproc=1
%NoSave
%Mem=1900MB
#P OB98/GEN NMR

erre ene a

0 1
  C      333.210    -372.591      65.038
  O      333.963    -372.830      63.862
  P      334.532    -371.620      62.984
  C      336.201    -373.074      61.577
  O      335.088    -372.207      61.613
  C      336.532    -373.397      60.111
  O      335.413    -374.066      59.488
  C      336.833    -372.134      59.309
  O      338.230    -371.892      59.269
  C      336.231    -372.454      57.955
  O      337.132    -373.262      57.180
  C      334.978    -373.273      58.351
  N      333.761    -372.536      58.743
  C      333.155    -371.680      57.827
  O      333.553    -371.511      56.678
  N      332.065    -370.988      58.298
  C      331.513    -371.110      59.545
  O      330.705    -370.325      60.023
  C      332.029    -372.219      60.355
  C      333.122    -372.855      59.932
  O      335.857    -371.202      63.778
  O      333.600    -370.466      62.806
  H      337.880    -372.695      56.918
  H      335.689    -370.426      64.347
  H      331.700    -370.261      57.688
  H      331.536    -372.446      61.286
  H      333.546    -373.656      60.538
  H      334.693    -373.964      57.551
  H      336.067    -371.550      57.376
  H      336.296    -371.279      59.738
  H      337.388    -374.082      60.084
  H      335.983    -373.990      62.130
  H      337.063    -372.596      62.058
  P      338.853    -370.708      60.150
  C      340.447    -371.866      61.796
  O      340.323    -371.204      60.550
  O      338.005    -370.242      61.286
  O      339.106    -369.545      59.078
  H      338.360    -368.905      59.104
  H      341.442    -372.311      61.860
  H      339.695    -372.655      61.890
  H      340.320    -371.139      62.605
  H      332.925    -373.525      65.475
  H      332.333    -372.030      64.792
  H      333.804    -372.037      65.735

 3  4  5  6  7  8  9  10  11  12  13  23  28  29  30  31  32 0
 6-311+G(2d,p)
 ****
 33  34 0
 6-311+G(2d,p)
 ****
 1  2  14  15  16  17  18  19  20  21  22  24  25  26  27 0
 3-21G
 ****
 35  36  37  38  39  40  41  42  43  44  45 0
 3-21G
 ****


