%nproc=1
%NoSave
%Mem=1900MB
#P OB98/GEN NMR

erre ene a

0 1
  C     -586.076    -657.618    -692.723
  O     -586.346    -657.553    -691.339
  H     -586.776    -658.315    -693.187
  H     -585.053    -657.975    -692.891
  H     -586.201    -656.633    -693.177
  P     -585.382    -656.620    -690.451
  C     -586.826    -655.504    -688.606
  O     -586.000    -656.599    -688.971
  C     -586.885    -655.390    -687.083
  O     -587.658    -656.473    -686.531
  C     -585.521    -655.476    -686.406
  O     -584.793    -654.253    -686.490
  C     -585.931    -655.825    -684.986
  O     -586.275    -654.643    -684.229
  C     -587.162    -656.721    -685.204
  N     -586.851    -658.136    -684.984
  C     -586.777    -658.542    -683.653
  O     -586.957    -657.771    -682.700
  N     -586.461    -659.849    -683.442
  C     -586.166    -660.774    -684.406
  O     -585.813    -661.921    -684.154
  C     -586.275    -660.290    -685.798
  C     -586.598    -659.014    -686.014
  O     -585.682    -655.150    -691.012
  O     -583.927    -656.969    -690.521
  H     -584.957    -654.872    -691.600
  H     -585.457    -654.104    -684.177
  H     -586.386    -660.155    -682.487
  H     -586.056    -661.001    -686.585
  H     -586.659    -658.640    -687.027
  H     -587.972    -656.443    -684.511
  H     -585.122    -656.318    -684.440
  H     -584.938    -656.311    -686.819
  H     -587.386    -654.445    -686.824
  H     -587.842    -655.671    -688.988
  H     -586.431    -654.582    -689.057
  P     -583.256    -654.257    -686.050
  C     -582.932    -651.827    -687.040
  O     -582.823    -652.705    -685.930
  O     -582.540    -654.745    -687.386
  O     -582.964    -655.075    -684.830
  H     -582.975    -654.425    -688.190
  H     -582.597    -650.851    -686.757
  H     -583.953    -651.776    -687.356
  H     -582.328    -652.192    -687.844

 6  7  8  9  10  11  12  13  14  15  16  27  31  32  33  34  35 0
 6-311+G(2d,p)
 ****
 36  37 0
 6-311+G(2d,p)
 ****
 1  2  3  4  5  17  18  19  20  21  22  23  24  25 0
 3-21G
 ****
 26  28  29  30  38  39  40  41  42  43  44  45 0
 3-21G
 ****


