%nproc=1
%NoSave
%Mem=1900MB
#P OB98/GEN NMR

erre ene a

0 1
  C      420.442    -349.073    -225.953
  O      420.136    -348.318    -224.788
  H      420.331    -348.433    -226.825
  H      419.743    -349.915    -226.043
  H      421.470    -349.442    -225.910
  P      420.328    -349.064    -223.376
  C      422.194    -347.421    -222.630
  O      421.835    -348.768    -222.908
  C      423.673    -347.314    -222.243
  O      424.482    -347.862    -223.335
  C      424.160    -345.876    -221.982
  O      425.134    -345.919    -220.942
  C      424.864    -345.521    -223.291
  O      425.803    -344.455    -223.118
  C      425.487    -346.875    -223.640
  N      429.519    -347.095    -226.646
  C      429.427    -347.099    -225.267
  N      430.592    -347.170    -224.574
  N      428.294    -347.027    -224.613
  C      427.211    -346.999    -225.430
  C      427.166    -346.987    -226.805
  C      428.429    -347.025    -227.512
  O      428.570    -347.015    -228.731
  N      425.868    -346.910    -227.252
  C      425.145    -346.883    -226.157
  N      425.911    -346.943    -225.018
  O      420.359    -350.612    -223.795
  O      419.270    -348.778    -222.361
  H      425.295    -343.641    -222.949
  H      419.457    -351.003    -223.722
  H      430.425    -347.125    -227.081
  H      424.045    -346.835    -226.131
  H      426.374    -347.097    -223.038
  H      424.129    -345.212    -224.054
  H      431.487    -347.263    -225.013
  H      423.363    -345.169    -221.718
  H      430.531    -347.207    -223.562
  H      423.838    -347.959    -221.376
  H      421.580    -347.061    -221.791
  H      421.987    -346.806    -223.517
  P      424.659    -346.389    -219.481
  C      426.401    -348.309    -219.251
  O      425.033    -347.932    -219.298
  O      423.065    -346.412    -219.617
  O      425.109    -345.482    -218.360
  H      422.653    -346.244    -218.756
  H      426.475    -349.369    -219.126
  H      426.878    -347.819    -218.428
  H      426.881    -348.024    -220.164

 6  7  8  9  10  11  12  13  14  15  26  29  33  34 0
 6-311+G(2d,p)
 ****
 36  38  39  40  41 0
 6-311+G(2d,p)
 ****
 1  2  3  4  5  16  17  18  19  20  21  22  23  24  25 0
 3-21G
 ****
 27  28  30  31  32  35  37  42  43  44  45  46  47 0
 3-21G
 ****
 48  49 0
 3-21G
 ****


