%nproc=1
%NoSave
%Mem=1900MB
#P OB98/GEN NMR

erre ene a

0 1
  C      514.122     155.384     116.664
  O      515.469     155.686     116.350
  H      514.037     155.252     117.744
  H      513.812     154.457     116.172
  H      513.467     156.204     116.359
  P      515.877     155.850     114.810
  C      517.014     154.218     113.154
  O      516.114     154.368     114.246
  C      518.047     153.130     113.451
  O      518.899     153.535     114.545
  C      517.442     151.794     113.866
  O      516.909     151.119     112.746
  C      518.649     151.132     114.517
  O      519.545     150.613     113.523
  C      519.288     152.333     115.252
  N      518.911     152.420     116.661
  C      519.500     151.481     117.514
  O      520.271     150.633     117.067
  N      519.176     151.521     118.852
  C      518.378     152.434     119.300
  N      518.106     152.419     120.632
  C      517.771     153.468     118.444
  C      518.064     153.392     117.148
  O      516.991     156.807     114.520
  O      514.513     156.294     114.095
  H      520.395     150.451     113.981
  H      514.463     157.267     114.034
  H      517.120     154.218     118.865
  H      517.661     154.117     116.441
  H      520.387     152.276     115.198
  H      518.369     150.305     115.163
  H      516.676     151.947     114.637
  H      518.682     153.017     112.562
  H      518.568     151.703     121.189
  H      517.513     155.184     113.013
  H      517.639     153.174     121.120
  H      516.466     153.978     112.237
  P      515.339     150.815     112.613
  C      513.818     148.791     113.076
  O      515.150     149.295     113.105
  O      514.741     151.129     111.287
  O      514.693     151.648     113.820
  H      514.642     152.607     113.590
  H      513.812     147.778     113.422
  H      513.444     148.828     112.074
  H      513.197     149.388     113.710

 6  7  8  9  10  11  12  13  14  15  16  26  30  31  32  33  35 0
 6-311+G(2d,p)
 ****
 37  38 0
 6-311+G(2d,p)
 ****
 1  2  3  4  5  17  18  19  20  21  22  23  24  25 0
 3-21G
 ****
 27  28  29  34  36  39  40  41  42  43  44  45  46 0
 3-21G
 ****


