%nproc=1
%NoSave
%Mem=1900MB
#P OB98/GEN NMR

erre ene a

0 1
  C      -66.727    -164.577      21.649
  O      -67.315    -163.946      22.783
  P      -66.577    -162.654      23.377
  C      -64.752    -164.127      24.551
  O      -65.055    -163.055      23.678
  C      -63.257    -164.134      24.918
  O      -63.062    -163.272      26.068
  C      -62.692    -165.490      25.329
  O      -61.267    -165.443      25.224
  C      -63.088    -165.560      26.787
  O      -62.327    -166.536      27.493
  C      -62.902    -164.098      27.251
  N      -63.861    -163.681      28.296
  C      -63.590    -164.020      29.619
  O      -62.596    -164.651      29.976
  N      -64.527    -163.644      30.542
  C      -65.665    -162.941      30.287
  O      -66.514    -162.707      31.137
  C      -65.833    -162.488      28.900
  C      -64.947    -162.880      27.983
  O      -67.233    -162.480      24.824
  O      -66.738    -161.432      22.537
  H      -62.686    -166.562      28.409
  H      -67.858    -161.733      24.824
  H      -64.376    -163.942      31.494
  H      -66.691    -161.869      28.670
  H      -65.067    -162.570      26.948
  H      -61.893    -163.937      27.654
  H      -64.140    -165.847      26.869
  H      -63.081    -166.336      24.757
  H      -62.680    -163.710      24.087
  H      -65.033    -165.074      24.088
  H      -65.348    -164.035      25.466
  P      -60.554    -166.464      24.214
  C      -60.489    -168.513      25.764
  O      -61.070    -167.929      24.615
  O      -59.077    -166.317      24.069
  O      -61.317    -166.192      22.831
  H      -60.782    -166.528      22.089
  H      -61.216    -169.189      26.221
  H      -60.198    -167.755      26.497
  H      -59.607    -169.088      25.468
  H      -67.321    -165.420      21.362
  H      -65.739    -164.905      21.896
  H      -66.680    -163.881      20.838

 3  4  5  6  7  8  9  10  11  12  13  23  28  29  30  31  32 0
 6-311+G(2d,p)
 ****
 33  34 0
 6-311+G(2d,p)
 ****
 1  2  14  15  16  17  18  19  20  21  22  24  25  26  27 0
 3-21G
 ****
 35  36  37  38  39  40  41  42  43  44  45 0
 3-21G
 ****


