%nproc=1
%NoSave
%Mem=1900MB
#P OB98/GEN NMR

erre ene a

0 1
  C      290.222      29.593      17.973
  O      291.279      30.367      17.408
  P      292.727      30.309      18.091
  C      294.006      29.526      15.997
  O      293.604      29.205      17.325
  C      294.604      28.301      15.300
  O      293.618      27.268      15.099
  C      295.154      28.607      13.918
  O      296.383      29.308      14.005
  C      295.245      27.214      13.317
  O      296.446      26.547      13.734
  C      294.010      26.516      13.931
  N      292.909      26.368      12.995
  C      292.885      25.184      12.250
  O      293.789      24.355      12.375
  N      291.853      24.976      11.370
  C      290.926      25.877      11.242
  N      289.925      25.618      10.357
  C      290.919      27.145      11.999
  C      291.932      27.326      12.844
  O      292.735      30.203      19.582
  O      293.404      31.684      17.609
  H      297.186      27.123      13.454
  H      294.034      31.981      18.292
  H      290.118      27.862      11.858
  H      292.005      28.227      13.438
  H      294.282      25.512      14.289
  H      295.258      27.240      12.223
  H      294.428      29.207      13.353
  H      295.404      27.903      15.942
  H      289.962      24.748       9.844
  H      294.741      30.334      16.024
  H      289.133      26.232      10.225
  H      293.139      29.907      15.447
  P      296.340      30.909      13.897
  C      297.716      31.163      16.078
  O      296.540      31.506      15.370
  O      294.793      31.203      13.591
  O      297.220      31.490      12.841
  H      294.719      31.982      13.010
  H      297.850      31.876      16.894
  H      298.599      31.201      15.432
  H      297.616      30.157      16.502
  H      289.328      29.742      17.404
  H      290.057      29.900      18.985
  H      290.489      28.557      17.954

 3  4  5  6  7  8  9  10  11  12  13  23  27  28  29  30  32 0
 6-311+G(2d,p)
 ****
 34  35 0
 6-311+G(2d,p)
 ****
 1  2  14  15  16  17  18  19  20  21  22  24  25  26 0
 3-21G
 ****
 31  33  36  37  38  39  40  41  42  43  44  45  46 0
 3-21G
 ****


