%nproc=1
%NoSave
%Mem=1900MB
#P OB98/GEN NMR

erre ene a

0 1
  C       98.195     616.080    -334.511
  O       99.436     616.033    -333.832
  H       97.393     616.118    -333.769
  H       98.070     615.180    -335.118
  H       98.141     616.970    -335.145
  P      100.758     616.145    -334.733
  C      101.716     618.175    -333.371
  O      101.284     617.659    -334.621
  C      103.146     618.696    -333.488
  O      103.259     619.686    -334.535
  C      103.642     619.427    -332.248
  O      103.889     618.563    -331.164
  C      104.892     620.093    -332.809
  O      105.982     619.160    -332.880
  C      104.418     620.499    -334.224
  N      104.121     621.922    -334.326
  C      105.222     622.784    -334.210
  O      106.350     622.330    -334.044
  N      104.999     624.136    -334.260
  C      103.801     624.594    -334.428
  N      103.646     625.941    -334.462
  C      102.621     623.721    -334.582
  C      102.851     622.407    -334.515
  O      100.172     616.079    -336.218
  O      101.817     615.131    -334.440
  H      105.810     618.596    -333.659
  H       99.476     616.736    -336.391
  H      101.636     624.141    -334.731
  H      102.037     621.700    -334.613
  H      105.189     620.258    -334.973
  H      105.232     620.924    -332.179
  H      102.938     620.222    -331.972
  H      103.802     617.850    -333.744
  H      104.481     626.514    -334.335
  H      101.648     617.412    -332.586
  H      102.759     626.412    -334.555
  H      101.040     618.991    -333.092
  P      103.661     619.063    -329.656
  C      101.885     617.287    -329.077
  O      102.147     618.678    -329.277
  O      104.019     620.486    -329.400
  O      104.505     618.015    -328.793
  H      104.224     617.086    -328.889
  H      100.853     617.150    -328.831
  H      102.494     616.921    -328.277
  H      102.113     616.749    -329.973

 6  7  8  9  10  11  12  13  14  15  16  26  30  31  32  33  35 0
 6-311+G(2d,p)
 ****
 37  38 0
 6-311+G(2d,p)
 ****
 1  2  3  4  5  17  18  19  20  21  22  23  24  25 0
 3-21G
 ****
 27  28  29  34  36  39  40  41  42  43  44  45  46 0
 3-21G
 ****


