%nproc=1
%NoSave
%Mem=1900MB
#P OB98/GEN NMR

erre ene a

0 1
  C      210.536    -213.448    -391.999
  O      210.267    -213.637    -393.393
  P      209.876    -212.352    -394.267
  C      212.271    -211.608    -394.963
  O      211.013    -212.120    -395.376
  C      213.086    -211.147    -396.172
  O      214.294    -210.467    -395.778
  C      213.542    -212.286    -397.073
  O      212.514    -212.691    -397.965
  C      214.675    -211.622    -397.840
  O      214.138    -210.811    -398.902
  C      215.315    -210.734    -396.768
  N      219.338    -209.894    -393.709
  C      218.400    -209.062    -394.214
  N      217.371    -209.356    -395.035
  C      217.351    -210.668    -395.320
  C      218.240    -211.636    -394.881
  C      219.276    -211.205    -394.035
  N      220.228    -212.056    -393.523
  N      217.909    -212.875    -395.393
  C      216.829    -212.661    -396.114
  N      216.457    -211.342    -396.111
  O      210.105    -211.140    -393.248
  O      208.476    -212.374    -394.783
  H      213.786    -211.420    -399.577
  H      209.449    -210.439    -393.414
  H      218.485    -208.020    -393.920
  H      216.282    -213.423    -396.653
  H      215.648    -209.767    -397.167
  H      215.350    -212.346    -398.305
  H      213.929    -213.124    -396.480
  H      212.468    -210.447    -396.752
  H      212.824    -212.372    -394.405
  H      220.923    -211.682    -392.900
  H      220.172    -213.043    -393.746
  H      212.108    -210.779    -394.264
  P      212.392    -214.259    -398.286
  C      210.889    -214.886    -396.263
  O      210.991    -214.719    -397.663
  O      213.487    -214.908    -397.311
  O      212.631    -214.616    -399.713
  H      213.847    -215.723    -397.711
  H      209.829    -214.898    -395.990
  H      211.377    -214.064    -395.732
  H      211.341    -215.836    -395.968
  H      210.781    -214.389    -391.552
  H      209.670    -213.041    -391.521
  H      211.358    -212.773    -391.883

 3  4  5  6  7  8  9  10  11  12  22  25  29  30  31  32 0
 6-311+G(2d,p)
 ****
 33  36  37 0
 6-311+G(2d,p)
 ****
 1  2  13  14  15  16  17  18  19  20  21  23  24  26 0
 3-21G
 ****
 27  28  34  35  38  39  40  41  42  43  44  45  46  47  48 0
 3-21G
 ****


