%nproc=1
%NoSave
%Mem=1900MB
#P OB98/GEN NMR

erre ene a

0 1
  C       -7.663     184.436    -190.535
  O       -7.560     185.693    -189.897
  H       -8.684     184.310    -190.902
  H       -7.450     183.642    -189.814
  H       -6.971     184.370    -191.380
  P       -6.086     186.221    -189.555
  C       -5.172     187.234    -191.759
  O       -5.803     187.482    -190.513
  C       -5.849     188.041    -192.870
  O       -7.202     187.537    -193.051
  C       -5.951     189.544    -192.570
  O       -5.730     190.271    -193.784
  C       -7.390     189.720    -192.122
  O       -7.873     191.046    -192.334
  C       -8.098     188.659    -192.959
  N      -12.641     190.330    -191.547
  C      -11.622     190.976    -192.225
  N      -11.843     192.263    -192.569
  N      -10.485     190.406    -192.533
  C      -10.419     189.106    -192.154
  C      -11.353     188.359    -191.476
  C      -12.596     189.009    -191.115
  O      -13.525     188.500    -190.495
  N      -10.899     187.084    -191.246
  C       -9.692     187.062    -191.782
  N       -9.359     188.261    -192.351
  O       -5.140     185.075    -190.154
  O       -5.809     186.455    -188.106
  H       -8.854     191.002    -192.361
  H       -4.653     184.638    -189.431
  H      -13.489     190.821    -191.323
  H       -9.021     186.214    -191.780
  H       -8.323     189.005    -193.974
  H       -7.474     189.495    -191.053
  H      -12.712     192.747    -192.410
  H       -5.239     189.879    -191.813
  H      -11.124     192.744    -193.103
  H       -5.314     187.861    -193.810
  H       -5.245     186.167    -191.988
  H       -4.114     187.513    -191.693
  P       -4.406     191.177    -193.860
  C       -2.346     189.810    -194.637
  O       -3.463     190.597    -195.025
  O       -3.626     190.793    -192.516
  O       -4.681     192.644    -193.933
  H       -3.673     191.534    -191.882
  H       -1.812     189.494    -195.509
  H       -2.685     188.952    -194.096
  H       -1.699     190.392    -194.014

 6  7  8  9  10  11  12  13  14  15  26  29  33  34 0
 6-311+G(2d,p)
 ****
 36  38  39  40  41 0
 6-311+G(2d,p)
 ****
 1  2  3  4  5  16  17  18  19  20  21  22  23  24  25 0
 3-21G
 ****
 27  28  30  31  32  35  37  42  43  44  45  46  47 0
 3-21G
 ****
 48  49 0
 3-21G
 ****


