%nproc=1
%NoSave
%Mem=1900MB
#P OB98/GEN NMR

erre ene a

0 1
  C     -394.133    -436.436     438.123
  O     -395.242    -436.351     438.984
  P     -396.276    -435.135     438.896
  C     -398.045    -436.607     440.072
  O     -397.356    -435.355     440.070
  C     -398.599    -436.898     441.468
  O     -397.508    -437.358     442.322
  C     -399.241    -435.652     442.136
  O     -400.571    -435.855     442.610
  C     -398.222    -435.280     443.196
  O     -398.743    -434.483     444.242
  C     -397.654    -436.651     443.582
  N     -396.390    -436.552     444.312
  C     -396.464    -436.487     445.703
  O     -397.508    -436.520     446.347
  N     -395.270    -436.325     446.357
  C     -394.067    -436.095     445.769
  O     -393.050    -435.859     446.417
  C     -394.051    -436.136     444.304
  C     -395.186    -436.382     443.644
  O     -396.880    -434.913     437.548
  O     -395.437    -433.894     439.446
  H     -397.991    -434.122     444.743
  H     -395.108    -433.995     440.354
  H     -395.317    -436.275     447.365
  H     -393.110    -435.952     443.807
  H     -395.215    -436.418     442.556
  H     -398.352    -437.215     444.196
  H     -397.432    -434.683     442.710
  H     -399.340    -434.835     441.422
  H     -399.334    -437.705     441.378
  H     -397.341    -437.390     439.798
  H     -398.845    -436.585     439.320
  P     -401.785    -434.826     442.430
  C     -403.441    -436.787     442.896
  O     -403.079    -435.444     443.142
  O     -402.003    -434.351     441.027
  O     -401.381    -433.599     443.384
  H     -401.765    -432.771     443.025
  H     -404.518    -436.883     443.009
  H     -402.942    -437.431     443.627
  H     -403.158    -437.099     441.890
  H     -393.574    -437.320     438.348
  H     -393.510    -435.576     438.257
  H     -394.471    -436.476     437.109

 3  4  5  6  7  8  9  10  11  12  13  23  28  29  30  31  32 0
 6-311+G(2d,p)
 ****
 33  34 0
 6-311+G(2d,p)
 ****
 1  2  14  15  16  17  18  19  20  21  22  24  25  26  27 0
 3-21G
 ****
 35  36  37  38  39  40  41  42  43  44  45 0
 3-21G
 ****


