%nproc=1
%NoSave
%Mem=1900MB
#P OB98/GEN NMR

erre ene a

0 1
  C      -86.958    -258.827     -47.774
  O      -88.137    -259.252     -47.096
  P      -89.417    -259.618     -47.995
  C      -91.730    -259.130     -46.896
  O      -90.627    -260.022     -47.023
  C      -92.695    -259.639     -45.821
  O      -93.505    -260.722     -46.313
  C      -91.991    -260.188     -44.591
  O      -91.529    -259.137     -43.764
  C      -93.083    -261.043     -43.954
  O      -93.875    -260.294     -43.028
  C      -93.933    -261.489     -45.173
  N      -93.836    -262.918     -45.427
  C      -94.966    -263.673     -45.082
  O      -95.940    -263.139     -44.568
  N      -94.932    -265.034     -45.303
  C      -93.872    -265.581     -45.802
  N      -93.902    -266.933     -46.002
  C      -92.650    -264.824     -46.159
  C      -92.708    -263.513     -45.938
  O      -89.002    -261.012     -48.672
  O      -89.749    -258.583     -49.027
  H      -93.246    -259.935     -42.359
  H      -89.391    -261.087     -49.564
  H      -91.787    -265.325     -46.564
  H      -91.856    -262.877     -46.173
  H      -94.991    -261.244     -45.003
  H      -92.654    -261.880     -43.398
  H      -91.146    -260.830     -44.898
  H      -93.360    -258.809     -45.533
  H      -94.747    -267.422     -45.744
  H      -92.254    -259.041     -47.849
  H      -93.122    -267.460     -46.378
  H      -91.355    -258.134     -46.644
  P      -90.013    -258.662     -43.929
  C      -89.882    -258.206     -41.403
  O      -89.759    -257.652     -42.707
  O      -90.100    -257.657     -45.177
  O      -88.982    -259.723     -44.145
  H      -89.212    -257.368     -45.441
  H      -89.482    -257.472     -40.684
  H      -89.303    -259.126     -41.320
  H      -90.935    -258.378     -41.171
  H      -86.191    -258.618     -47.058
  H      -87.170    -257.943     -48.338
  H      -86.628    -259.601     -48.435

 3  4  5  6  7  8  9  10  11  12  13  21  23  27  28  29  30  32 0
 6-311+G(2d,p)
 ****
 34  35 0
 6-311+G(2d,p)
 ****
 1  2  14  15  16  17  18  19  20  22  24  25  26 0
 3-21G
 ****
 31  33  36  37  38  39  40  41  42  43  44  45  46 0
 3-21G
 ****


