%nproc=1
%NoSave
%Mem=1900MB
#P OB98/GEN NMR

erre ene a

0 1
  C      125.560     -14.237     -81.362
  O      125.705     -14.399     -82.758
  H      126.532     -14.045     -80.900
  H      124.906     -13.381     -81.171
  H      125.110     -15.132     -80.922
  P      126.662     -15.588     -83.252
  C      128.666     -13.929     -83.337
  O      128.143     -15.143     -82.816
  C      130.145     -14.113     -83.655
  O      130.897     -14.300     -82.434
  C      130.441     -15.337     -84.515
  O      130.231     -15.095     -85.895
  C      131.914     -15.547     -84.210
  O      132.703     -14.586     -84.935
  C      131.964     -15.250     -82.703
  N      133.865     -19.822     -81.399
  C      134.328     -18.852     -82.219
  N      133.773     -17.655     -82.496
  C      132.626     -17.495     -81.819
  C      132.032     -18.390     -80.943
  C      132.701     -19.609     -80.742
  N      132.216     -20.613     -79.933
  N      130.845     -17.879     -80.456
  C      130.735     -16.691     -81.016
  N      131.771     -16.427     -81.872
  O      126.691     -15.420     -84.843
  O      126.276     -16.962     -82.815
  H      132.627     -14.811     -85.881
  H      127.060     -16.219     -85.263
  H      135.267     -19.070     -82.721
  H      129.926     -15.993     -80.842
  H      132.908     -14.787     -82.395
  H      132.269     -16.539     -84.501
  H      129.878     -16.213     -84.174
  H      130.512     -13.197     -84.134
  H      128.546     -13.138     -82.588
  H      132.688     -21.502     -79.970
  H      131.284     -20.526     -79.558
  H      128.116     -13.655     -84.241
  P      129.544     -16.266     -86.756
  C      131.530     -16.409     -88.424
  O      130.740     -17.080     -87.450
  O      128.882     -15.472     -87.976
  O      128.547     -17.087     -86.006
  H      128.065     -15.914     -88.276
  H      132.281     -17.075     -88.794
  H      131.998     -15.556     -87.978
  H      130.905     -16.091     -89.233

 6  7  8  9  10  11  12  13  14  15  25  28  32  33  34  35 0
 6-311+G(2d,p)
 ****
 36  39  40 0
 6-311+G(2d,p)
 ****
 1  2  3  4  5  16  17  18  19  20  21  22  23  24 0
 3-21G
 ****
 26  27  29  30  31  37  38  41  42  43  44  45  46  47 0
 3-21G
 ****
 48 0
 3-21G
 ****


