%nproc=1
%NoSave
%Mem=1900MB
#P OB98/GEN NMR

erre ene a

0 1
  C      415.844    -301.268    -393.206
  O      414.840    -302.226    -392.910
  P      415.224    -303.742    -392.549
  C      412.765    -303.683    -391.749
  O      413.822    -304.474    -392.284
  C      411.549    -304.562    -391.479
  O      411.916    -305.649    -390.602
  C      410.394    -303.847    -390.789
  O      409.682    -303.027    -391.702
  C      409.616    -305.031    -390.225
  O      408.812    -305.635    -391.250
  C      410.752    -305.993    -389.816
  N      411.046    -305.944    -388.388
  C      410.416    -306.902    -387.591
  O      409.666    -307.742    -388.080
  N      410.686    -306.912    -386.244
  C      411.489    -306.031    -385.733
  N      411.768    -306.131    -384.403
  C      412.129    -304.969    -386.530
  C      411.872    -304.988    -387.835
  O      416.220    -303.895    -391.451
  O      415.688    -304.378    -393.935
  H      407.974    -305.135    -391.285
  H      416.652    -304.263    -394.122
  H      412.782    -304.245    -386.061
  H      412.319    -304.257    -388.495
  H      410.495    -307.021    -390.087
  H      408.951    -304.764    -389.396
  H      410.765    -303.229    -389.963
  H      411.215    -304.993    -392.435
  H      411.450    -306.972    -383.939
  H      412.498    -302.915    -392.481
  H      412.583    -305.684    -384.002
  H      413.110    -303.197    -390.832
  P      409.021    -301.683    -391.131
  C      409.179    -301.012    -393.630
  O      408.468    -300.886    -392.412
  O      410.286    -300.829    -390.645
  O      408.033    -301.899    -390.034
  H      410.386    -300.890    -389.677
  H      408.558    -300.618    -394.438
  H      409.407    -302.063    -393.841
  H      410.104    -300.434    -393.586
  H      415.385    -300.325    -393.419
  H      416.406    -301.591    -394.057
  H      416.498    -301.165    -392.365

 3  4  5  6  7  8  9  10  11  12  13  23  27  28  29  30  32 0
 6-311+G(2d,p)
 ****
 34  35 0
 6-311+G(2d,p)
 ****
 1  2  14  15  16  17  18  19  20  21  22  24  25  26 0
 3-21G
 ****
 31  33  36  37  38  39  40  41  42  43  44  45  46 0
 3-21G
 ****


