%nproc=1
%NoSave
%Mem=1900MB
#P OB98/GEN NMR

erre ene a

0 1
  C     -346.697     214.302      82.455
  O     -345.461     213.979      81.850
  H     -347.447     214.446      81.671
  H     -346.600     215.233      83.019
  H     -347.024     213.495      83.113
  P     -344.264     213.551      82.831
  C     -343.630     216.061      83.271
  O     -344.033     214.812      83.798
  C     -344.316     217.213      84.022
  O     -344.095     217.026      85.447
  C     -343.781     218.599      83.644
  O     -344.870     219.525      83.682
  C     -342.807     218.915      84.764
  O     -342.592     220.315      84.906
  C     -343.488     218.228      85.963
  N     -342.554     217.940      87.044
  C     -342.797     218.574      88.273
  O     -343.760     219.336      88.395
  N     -341.930     218.355      89.312
  C     -340.878     217.626      89.134
  N     -340.047     217.470      90.195
  C     -340.555     216.983      87.845
  C     -341.431     217.165      86.856
  O     -343.004     213.587      81.850
  O     -344.474     212.244      83.523
  H     -343.371     220.709      85.364
  H     -342.983     214.369      81.273
  H     -339.653     216.386      87.741
  H     -341.275     216.725      85.885
  H     -344.296     218.863      86.359
  H     -341.835     218.446      84.564
  H     -343.310     218.615      82.652
  H     -345.391     217.143      83.850
  H     -340.293     217.949      91.055
  H     -343.881     216.123      82.206
  H     -339.167     216.973      90.158
  H     -342.544     216.141      83.363
  P     -345.463     220.108      82.319
  C     -344.595     222.533      82.518
  O     -344.523     221.307      81.806
  O     -346.924     220.395      82.310
  O     -345.119     218.934      81.261
  H     -345.889     218.835      80.667
  H     -343.925     223.241      82.077
  H     -344.320     222.369      83.539
  H     -345.594     222.913      82.474

 6  7  8  9  10  11  12  13  14  15  16  26  30  31  32  33  35 0
 6-311+G(2d,p)
 ****
 37  38 0
 6-311+G(2d,p)
 ****
 1  2  3  4  5  17  18  19  20  21  22  23  24  25 0
 3-21G
 ****
 27  28  29  34  36  39  40  41  42  43  44  45  46 0
 3-21G
 ****


