%nproc=1
%NoSave
%Mem=1900MB
#P OB98/GEN NMR

erre ene a

0 1
  C      251.055     486.387     390.389
  O      250.026     486.799     391.285
  P      250.381     486.996     392.838
  C      250.386     485.604     395.008
  O      250.174     485.598     393.596
  C      250.132     484.205     395.612
  O      248.703     483.901     395.569
  C      250.879     483.084     394.869
  O      251.624     482.241     395.738
  C      249.782     482.405     394.052
  O      250.106     481.061     393.723
  C      248.544     482.630     394.935
  N      247.309     482.554     394.133
  C      246.897     481.290     393.730
  O      247.545     480.271     393.948
  N      245.725     481.231     393.014
  C      244.984     482.301     392.612
  O      243.964     482.205     391.931
  C      245.492     483.627     393.005
  C      246.620     483.684     393.737
  O      249.743     488.183     393.507
  O      251.979     487.150     392.830
  H      250.133     480.537     394.557
  H      252.224     487.833     393.495
  H      245.419     480.309     392.740
  H      244.960     484.494     392.683
  H      247.030     484.643     394.037
  H      248.468     481.855     395.710
  H      249.655     482.958     393.121
  H      251.627     483.497     394.185
  H      250.433     484.239     396.665
  H      249.703     486.317     395.481
  H      251.395     485.964     395.235
  P      253.151     481.802     395.496
  C      254.382     479.727     394.544
  O      253.145     480.349     394.811
  O      254.063     481.945     396.667
  O      253.621     482.779     394.306
  H      254.533     483.073     394.481
  H      254.234     478.967     393.777
  H      254.755     479.250     395.466
  H      255.135     480.455     394.188
  H      250.655     486.304     389.400
  H      251.439     485.438     390.699
  H      251.844     487.110     390.395

 3  4  5  6  7  8  9  10  11  12  13  23  28  29  30  31  32 0
 6-311+G(2d,p)
 ****
 33  34 0
 6-311+G(2d,p)
 ****
 1  2  14  15  16  17  18  19  20  21  22  24  25  26  27 0
 3-21G
 ****
 35  36  37  38  39  40  41  42  43  44  45 0
 3-21G
 ****


