%nproc=1
%NoSave
%Mem=1900MB
#P OB98/GEN NMR

erre ene a

0 1
  C      932.172     457.218     201.718
  O      933.214     458.136     201.449
  P      933.691     459.161     202.590
  C      932.478     460.861     204.089
  O      932.522     460.249     202.800
  C      931.199     461.675     204.244
  O      930.032     460.857     203.970
  C      930.974     462.220     205.655
  O      931.834     463.300     205.934
  C      929.490     462.581     205.589
  O      929.300     463.845     204.940
  C      928.923     461.434     204.715
  N      928.237     460.428     205.516
  C      926.959     460.781     205.965
  O      926.523     461.924     205.772
  N      926.219     459.848     206.656
  C      926.755     458.701     206.964
  N      925.971     457.785     207.592
  C      928.156     458.358     206.639
  C      928.826     459.255     205.898
  O      935.049     459.743     202.398
  O      933.628     458.304     203.933
  H      934.487     458.412     204.422
  H      929.787     464.503     205.450
  H      928.587     457.403     206.975
  H      929.841     459.062     205.602
  H      928.250     461.838     203.971
  H      929.054     462.650     206.591
  H      931.134     461.421     206.389
  H      931.213     462.497     203.508
  H      925.008     458.060     207.786
  H      933.346     461.513     204.190
  H      926.164     456.778     207.577
  H      932.550     460.091     204.867
  P      932.000     463.723     207.482
  C      930.350     464.730     209.211
  O      930.729     464.636     207.871
  O      933.223     464.758     207.480
  O      932.255     462.579     208.420
  H      933.745     464.648     208.271
  H      929.718     465.619     209.329
  H      931.217     464.802     209.862
  H      929.737     463.838     209.486
  H      931.990     456.620     200.849
  H      931.282     457.754     201.975
  H      932.455     456.586     202.533

 3  4  5  6  7  8  9  10  11  12  13  24  27  28  29  30  32 0
 6-311+G(2d,p)
 ****
 34  35 0
 6-311+G(2d,p)
 ****
 1  2  14  15  16  17  18  19  20  21  22  23  25  26 0
 3-21G
 ****
 31  33  36  37  38  39  40  41  42  43  44  45  46 0
 3-21G
 ****


