%nproc=1
%NoSave
%Mem=1900MB
#P OB98/GEN NMR

erre ene a

0 1
  C     -134.065    -256.028     121.312
  O     -134.185    -256.925     122.399
  H     -134.148    -256.592     120.379
  H     -133.089    -255.533     121.339
  H     -134.863    -255.281     121.348
  P     -134.026    -256.291     123.864
  C     -131.972    -257.821     124.260
  O     -132.489    -256.499     124.282
  C     -131.064    -258.058     125.464
  O     -129.923    -257.175     125.426
  C     -131.742    -257.844     126.814
  O     -132.458    -259.000     127.212
  C     -130.541    -257.559     127.705
  O     -129.879    -258.784     128.087
  C     -129.645    -256.722     126.780
  N     -128.013    -252.480     128.978
  C     -127.631    -253.792     129.177
  N     -126.690    -254.012     130.123
  N     -128.131    -254.803     128.517
  C     -129.101    -254.442     127.647
  C     -129.572    -253.181     127.360
  C     -128.970    -252.066     128.059
  O     -129.207    -250.877     127.867
  N     -130.551    -253.222     126.399
  C     -130.694    -254.506     126.133
  N     -129.841    -255.288     126.867
  O     -134.806    -257.327     124.805
  O     -134.561    -254.908     124.027
  H     -129.109    -258.570     128.642
  H     -135.273    -256.828     125.502
  H     -127.572    -251.740     129.492
  H     -131.391    -254.918     125.414
  H     -128.581    -256.905     126.969
  H     -130.836    -257.067     128.633
  H     -126.490    -253.335     130.845
  H     -132.394    -256.962     126.792
  H     -126.466    -254.979     130.318
  H     -130.678    -259.084     125.388
  H     -131.397    -257.960     123.339
  H     -132.801    -258.533     124.277
  P     -133.850    -258.802     127.980
  C     -132.854    -259.056     130.364
  O     -133.531    -258.216     129.440
  O     -134.315    -260.307     128.272
  O     -134.889    -258.063     127.206
  H     -135.039    -260.553     127.668
  H     -132.713    -258.531     131.286
  H     -131.902    -259.333     129.962
  H     -133.437    -259.936     130.540

 6  7  8  9  10  11  12  13  14  15  26  29  33  34 0
 6-311+G(2d,p)
 ****
 36  38  39  40  41 0
 6-311+G(2d,p)
 ****
 1  2  3  4  5  16  17  18  19  20  21  22  23  24  25 0
 3-21G
 ****
 27  28  30  31  32  35  37  42  43  44  45  46  47 0
 3-21G
 ****
 48  49 0
 3-21G
 ****


