%nproc=1
%NoSave
%Mem=1900MB
#P OB98/GEN NMR

erre ene a

0 1
  C     -250.615    -146.909     -37.578
  O     -250.978    -145.994     -38.594
  P     -252.430    -146.129     -39.263
  C     -253.365    -143.991     -38.050
  O     -253.456    -145.383     -38.278
  C     -254.633    -143.287     -38.544
  O     -255.777    -143.800     -37.802
  C     -254.622    -141.760     -38.374
  O     -255.326    -141.204     -39.492
  C     -255.408    -141.558     -37.088
  O     -255.950    -140.248     -36.980
  C     -256.457    -142.667     -37.223
  N     -257.072    -143.039     -35.947
  C     -257.897    -142.103     -35.325
  O     -258.116    -140.981     -35.773
  N     -258.446    -142.499     -34.130
  C     -258.206    -143.674     -33.483
  O     -258.713    -143.968     -32.407
  C     -257.292    -144.604     -34.163
  C     -256.782    -144.251     -35.345
  O     -252.730    -147.682     -39.040
  O     -252.485    -145.669     -40.679
  H     -252.378    -148.022     -38.199
  H     -256.444    -140.197     -36.143
  H     -259.076    -141.852     -33.682
  H     -257.067    -145.541     -33.673
  H     -256.107    -144.918     -35.868
  H     -257.239    -142.366     -37.931
  H     -254.747    -141.730     -36.231
  H     -253.608    -141.353     -38.334
  H     -254.788    -143.554     -39.598
  H     -252.502    -143.589     -38.592
  H     -253.207    -143.804     -36.983
  P     -254.961    -139.706     -39.956
  C     -253.174    -140.633     -41.627
  O     -253.486    -139.749     -40.579
  O     -254.725    -139.022     -38.524
  O     -256.014    -139.018     -40.757
  H     -254.146    -139.541     -37.945
  H     -252.264    -140.287     -42.128
  H     -253.978    -140.681     -42.366
  H     -252.992    -141.634     -41.223
  H     -249.625    -146.689     -37.237
  H     -250.644    -147.905     -37.968
  H     -251.301    -146.825     -36.761

 3  4  5  6  7  8  9  10  11  12  13  24  28  29  30  31  32 0
 6-311+G(2d,p)
 ****
 33  34 0
 6-311+G(2d,p)
 ****
 1  2  14  15  16  17  18  19  20  21  22  23  25  26  27 0
 3-21G
 ****
 35  36  37  38  39  40  41  42  43  44  45 0
 3-21G
 ****


