%nproc=1
%NoSave
%Mem=1900MB
#P OB98/GEN NMR

erre ene a

0 1
  C      -73.616       8.914     127.091
  O      -74.947       8.449     127.003
  H      -73.360       9.426     126.158
  H      -72.931       8.073     127.229
  H      -73.512       9.620     127.921
  P      -75.536       7.700     128.296
  C      -75.783       5.623     126.749
  O      -75.376       6.128     128.016
  C      -75.770       4.096     126.773
  O      -74.434       3.631     127.067
  C      -76.665       3.480     127.845
  O      -78.027       3.462     127.453
  C      -76.053       2.091     127.976
  O      -76.549       1.200     126.969
  C      -74.560       2.362     127.746
  N      -70.571       0.363     130.216
  C      -71.033       0.191     128.956
  N      -72.098       0.780     128.367
  C      -72.698       1.627     129.219
  C      -72.347       1.898     130.530
  C      -71.222       1.224     131.032
  N      -70.774       1.370     132.325
  N      -73.236       2.792     131.097
  C      -74.103       3.063     130.141
  N      -73.813       2.384     128.989
  O      -77.113       7.950     128.165
  O      -74.999       8.174     129.606
  H      -76.310       0.296     127.253
  H      -77.364       8.733     128.692
  H      -70.478      -0.513     128.342
  H      -74.952       3.728     130.237
  H      -74.096       1.603     127.103
  H      -76.285       1.646     128.945
  H      -76.541       4.014     128.796
  H      -76.048       3.728     125.775
  H      -75.086       5.977     125.979
  H      -76.786       5.998     126.522
  H      -69.972       0.835     132.624
  H      -71.314       1.927     132.974
  P      -79.148       3.364     128.593
  C      -79.352       0.807     128.159
  O      -79.184       1.847     129.112
  O      -80.516       3.520     127.776
  O      -79.027       4.383     129.678
  H      -80.857       4.430     127.852
  H      -79.355      -0.139     128.660
  H      -78.547       0.835     127.455
  H      -80.281       0.941     127.645

 6  7  8  9  10  11  12  13  14  15  25  28  32  33  34  35 0
 6-311+G(2d,p)
 ****
 36  37  40 0
 6-311+G(2d,p)
 ****
 1  2  3  4  5  16  17  18  19  20  21  22  23  24 0
 3-21G
 ****
 26  27  29  30  31  38  39 41  42  43  44  45  46  47  48 0
 3-21G
 ****


