%nproc=1
%NoSave
%Mem=1900MB
#P OB98/GEN NMR

erre ene a

0 1
  C     -124.970    -483.698     384.494
  O     -124.944    -484.122     383.145
  H     -124.367    -484.387     385.088
  H     -125.996    -483.709     384.871
  H     -124.553    -482.695     384.586
  P     -125.754    -483.225     382.080
  C     -127.937    -484.632     381.924
  O     -127.303    -483.464     382.432
  C     -129.345    -484.785     382.521
  O     -130.038    -485.853     381.837
  C     -129.325    -485.124     384.020
  O     -130.325    -484.352     384.687
  C     -129.662    -486.604     384.073
  O     -130.267    -486.973     385.309
  C     -130.542    -486.769     382.828
  N     -130.528    -488.147     382.328
  C     -131.773    -488.765     382.148
  O     -132.813    -488.159     382.417
  N     -131.804    -490.071     381.725
  C     -130.696    -490.719     381.552
  N     -130.799    -492.019     381.152
  C     -129.368    -490.122     381.779
  C     -129.358    -488.846     382.157
  O     -125.545    -484.026     380.713
  O     -125.345    -481.792     382.013
  H     -130.226    -487.957     385.383
  H     -125.808    -483.479     379.933
  H     -128.472    -490.710     381.641
  H     -128.419    -488.325     382.351
  H     -131.586    -486.496     383.049
  H     -128.743    -487.192     383.957
  H     -128.361    -484.932     384.492
  H     -129.905    -483.860     382.331
  H     -131.728    -492.400     381.019
  H     -127.332    -485.507     382.178
  H     -130.000    -492.629     381.019
  H     -128.015    -484.546     380.834
  P     -129.785    -483.163     385.631
  C     -130.122    -484.356     387.914
  O     -129.190    -483.837     386.966
  O     -131.124    -482.432     386.122
  O     -128.848    -482.230     384.936
  H     -131.289    -481.628     385.597
  H     -129.591    -484.771     388.745
  H     -130.714    -485.119     387.452
  H     -130.760    -483.568     388.255

 6  7  8  9  10  11  12  13  14  15  16  26  30  31  32  33  35 0
 6-311+G(2d,p)
 ****
 37  38 0
 6-311+G(2d,p)
 ****
 1  2  3  4  5  17  18  19  20  21  22  23  24  25 0
 3-21G
 ****
 27  28  29  34  36  39  40  41  42  43  44  45  46 0
 3-21G
 ****


