%nproc=1
%NoSave
%Mem=1900MB
#P OB98/GEN NMR

erre ene a

0 1
  C      112.222     -96.094    -238.230
  O      111.401     -97.234    -238.089
  H      112.608     -95.817    -237.247
  H      111.651     -95.253    -238.632
  H      113.068     -96.314    -238.887
  P      110.617     -97.775    -239.378
  C      111.843     -98.635    -241.486
  O      111.593     -98.821    -240.101
  C      111.828     -99.976    -242.229
  O      112.844    -100.845    -241.655
  C      110.487    -100.724    -242.134
  O      110.341    -101.497    -243.329
  C      110.730    -101.625    -240.939
  O      109.762    -102.642    -240.854
  C      112.179    -102.045    -241.202
  N      112.819    -102.612    -240.025
  C      113.063    -103.989    -240.057
  O      112.732    -104.654    -241.040
  N      113.649    -104.580    -238.968
  C      113.906    -103.875    -237.912
  N      114.473    -104.525    -236.860
  C      113.608    -102.431    -237.813
  C      113.076    -101.868    -238.899
  O      110.044     -96.728    -240.276
  O      109.470     -98.711    -238.768
  H      108.861    -102.261    -240.758
  H      108.610     -98.254    -238.821
  H      113.823    -101.892    -236.903
  H      112.821    -100.813    -238.920
  H      112.234    -102.778    -242.017
  H      110.665    -101.055    -240.006
  H      109.633    -100.053    -242.011
  H      112.111     -99.803    -243.276
  H      114.649    -105.518    -236.968
  H      112.828     -98.167    -241.584
  H      114.696    -104.085    -235.981
  H      111.092     -97.966    -241.920
  P      109.216    -101.193    -244.431
  C      108.811     -99.241    -246.073
  O      109.771    -100.106    -245.473
  O      107.876    -100.857    -243.856
  O      109.124    -102.533    -245.311
  H      108.213    -102.635    -245.641
  H      109.306     -98.569    -246.742
  H      108.310     -98.681    -245.311
  H      108.096     -99.823    -246.616

 6  7  8  9  10  11  12  13  14  15  16  26  30  31  32  33  35 0
 6-311+G(2d,p)
 ****
 37  38 0
 6-311+G(2d,p)
 ****
 1  2  3  4  5  17  18  19  20  21  22  23  24  25 0
 3-21G
 ****
 27  28  29  34  36  39  40  41  42  43  44  45  46 0
 3-21G
 ****


