%nproc=1
%NoSave
%Mem=1900MB
#P OB98/GEN NMR

erre ene a

0 1
  C     -150.637    -176.346     -98.765
  O     -149.490    -175.616     -98.368
  P     -148.149    -176.423     -98.035
  C     -147.716    -175.468     -95.656
  O     -147.291    -175.537     -97.008
  C     -147.338    -174.117     -95.046
  O     -145.883    -174.011     -94.972
  C     -147.842    -172.907     -95.847
  O     -148.146    -171.864     -94.909
  C     -146.622    -172.520     -96.660
  O     -146.673    -171.187     -97.147
  C     -145.518    -172.783     -95.631
  N     -144.188    -172.868     -96.232
  C     -143.387    -171.732     -96.174
  O     -143.730    -170.672     -95.652
  N     -142.173    -171.828     -96.800
  C     -141.730    -172.886     -97.536
  O     -140.681    -172.864     -98.171
  C     -142.619    -174.058     -97.564
  C     -143.787    -173.997     -96.921
  O     -147.318    -176.332     -99.399
  O     -148.361    -177.835     -97.603
  H     -145.921    -171.070     -97.756
  H     -147.405    -177.160     -99.907
  H     -141.574    -171.018     -96.757
  H     -142.288    -174.924     -98.123
  H     -144.471    -174.838     -96.941
  H     -145.520    -171.995     -94.866
  H     -146.532    -173.190     -97.522
  H     -148.715    -173.126     -96.469
  H     -147.718    -174.078     -94.018
  H     -147.235    -176.265     -95.086
  H     -148.799    -175.625     -95.602
  P     -149.649    -171.771     -94.351
  C     -150.229    -169.723     -95.869
  O     -150.127    -170.258     -94.567
  O     -149.388    -171.871     -92.773
  O     -150.553    -172.837     -94.877
  H     -148.634    -171.333     -92.484
  H     -150.546    -170.482     -96.592
  H     -149.260    -169.320     -96.172
  H     -150.963    -168.914     -95.863
  H     -151.444    -175.669     -98.950
  H     -150.914    -177.026     -97.987
  H     -150.419    -176.894     -99.658

 3  4  5  6  7  8  9  10  11  12  13  23  28  29  30  31  32 0
 6-311+G(2d,p)
 ****
 33  34 0
 6-311+G(2d,p)
 ****
 1  2  14  15  16  17  18  19  20  21  22  24  25  26 0
 3-21G
 ****
 27  35  36  37  38  39  40  41  42  43  44  45 0
 3-21G
 ****


