%nproc=1
%NoSave
%Mem=1900MB
#P OB98/GEN NMR

erre ene a

0 1
  C      -96.123      53.545     -86.277
  O      -96.532      52.514     -85.400
  H      -96.034      53.149     -87.291
  H      -96.883      54.331     -86.273
  H      -95.170      53.974     -85.957
  P      -95.441      51.402     -85.017
  C      -96.982      49.352     -85.419
  O      -96.264      50.132     -84.474
  C      -98.408      49.101     -84.930
  O      -99.157      50.346     -85.026
  C      -99.171      48.031     -85.728
  O      -99.968      47.267     -84.817
  C     -100.088      48.852     -86.618
  O     -101.254      48.137     -87.014
  C     -100.380      50.051     -85.721
  N     -104.513      52.552     -87.307
  C     -104.331      51.639     -86.331
  N     -103.180      51.060     -85.937
  C     -102.136      51.563     -86.616
  C     -102.162      52.502     -87.634
  C     -103.430      52.994     -87.991
  N     -103.634      53.875     -89.029
  N     -100.889      52.719     -88.123
  C     -100.115      51.907     -87.433
  N     -100.822      51.187     -86.511
  O      -94.778      52.013     -83.692
  O      -94.425      51.108     -86.067
  H     -101.686      47.770     -86.218
  H      -94.041      52.603     -83.938
  H     -105.228      51.323     -85.805
  H      -99.051      51.779     -87.577
  H     -101.159      49.842     -84.977
  H      -99.546      49.156     -87.520
  H      -98.522      47.361     -86.303
  H      -98.369      48.832     -83.867
  H      -96.476      48.388     -85.546
  H     -104.587      54.088     -89.282
  H     -102.853      54.127     -89.618
  H      -96.995      49.871     -86.381
  P     -100.057      45.686     -85.061
  C     -102.652      45.492     -85.177
  O     -101.454      45.159     -84.483
  O      -98.983      45.093     -84.032
  O      -99.759      45.272     -86.467
  H      -98.574      44.290     -84.396
  H     -103.490      45.067     -84.666
  H     -102.607      45.103     -86.173
  H     -102.759      46.556     -85.214

 6  7  8  9  10  11  12  13  14  15  25  28  32  33  34  35 0
 6-311+G(2d,p)
 ****
 36  39  40 0
 6-311+G(2d,p)
 ****
 1  2  3  4  5  16  17  18  19  20  21  22  23  24 0
 3-21G
 ****
 26  27  29  30  31  37  38  41  42  43  44  45  46  47 0
 3-21G
 ****
 48 0
 3-21G
 ****


