%nproc=1
%NoSave
%Mem=1900MB
#P OB98/GEN NMR

erre ene a

0 1
  C     -894.360    -419.539    -480.555
  O     -894.850    -420.883    -480.487
  P     -896.330    -421.296    -480.968
  C     -896.750    -423.336    -482.484
  O     -896.240    -422.001    -482.399
  C     -895.650    -424.327    -482.901
  O     -894.560    -424.303    -481.955
  C     -896.100    -425.785    -482.956
  O     -896.870    -426.034    -484.126
  C     -894.750    -426.509    -482.908
  O     -894.150    -426.556    -484.203
  C     -893.940    -425.599    -481.959
  N     -893.860    -426.151    -480.611
  C     -892.610    -426.634    -480.212
  O     -891.660    -426.643    -481.005
  N     -892.460    -427.118    -478.937
  C     -893.490    -427.181    -478.150
  N     -893.300    -427.664    -476.892
  C     -894.840    -426.761    -478.561
  C     -894.950    -426.259    -479.788
  O     -897.320    -420.185    -480.899
  O     -896.760    -422.488    -479.985
  H     -894.000    -425.638    -484.479
  H     -897.730    -422.469    -479.871
  H     -895.690    -426.860    -477.886
  H     -895.910    -425.918    -480.170
  H     -892.920    -425.452    -482.344
  H     -894.850    -427.535    -482.556
  H     -896.680    -426.034    -482.059
  H     -895.260    -424.009    -483.875
  H     -892.350    -427.935    -476.643
  H     -897.550    -423.348    -483.244
  H     -894.030    -427.753    -476.200
  H     -897.170    -423.619    -481.514
  P     -898.420    -425.667    -484.145
  C     -898.790    -424.871    -486.556
  O     -898.630    -424.478    -485.205
  O     -899.050    -425.436    -482.810
  O     -899.100    -426.922    -484.889
  H     -900.000    -427.048    -484.524
  H     -899.300    -424.067    -487.096
  H     -899.380    -425.785    -486.637
  H     -897.800    -425.031    -487.009
  H     -893.357    -419.506    -480.183
  H     -894.982    -418.902    -479.962
  H     -894.374    -419.205    -481.571

 3  4  5  6  7  8  9  10  11  12  13  23  27  28  29  30  32 0
 6-311+G(2d,p)
 ****
 34  35 0
 6-311+G(2d,p)
 ****
 1  2  14  15  16  17  18  19  20  21  22  24  25  26 0
 3-21G
 ****
 31  33  36  37  38  39  40  41  42  43  44  45  46 0
 3-21G
 ****


