%nproc=1
%NoSave
%Mem=1900MB
#P OB98/GEN NMR

erre ene a

0 1
  C     -760.086     403.432     364.537
  O     -760.184     402.966     363.204
  P     -761.152     403.753     362.195
  C     -763.708     404.199     362.136
  O     -762.667     403.319     362.528
  C     -765.047     403.753     362.741
  O     -765.500     402.551     362.065
  C     -764.968     403.438     364.231
  O     -766.218     403.789     364.861
  C     -764.862     401.924     364.274
  O     -765.303     401.397     365.520
  C     -765.729     401.544     363.077
  N     -767.533     396.861     362.433
  C     -768.211     398.025     362.725
  N     -769.536     397.911     362.977
  N     -767.641     399.208     362.780
  C     -766.307     399.171     362.522
  C     -765.534     398.078     362.200
  C     -766.173     396.784     362.159
  O     -765.624     395.707     361.925
  N     -764.236     398.439     361.963
  C     -764.202     399.746     362.194
  N     -765.434     400.221     362.564
  O     -760.861     403.037     360.791
  O     -760.907     405.220     362.111
  H     -766.171     401.810     365.716
  H     -760.318     403.627     360.229
  H     -768.017     395.979     362.418
  H     -763.326     400.369     362.122
  H     -766.799     401.574     363.332
  H     -763.817     401.623     364.128
  H     -770.018     397.032     363.018
  H     -764.151     403.933     364.765
  H     -770.047     398.743     363.239
  H     -765.795     404.529     362.541
  H     -763.793     404.199     361.048
  H     -763.477     405.219     362.463
  P     -766.111     404.684     366.188
  C     -765.160     404.268     368.582
  O     -765.335     403.789     367.266
  O     -767.615     404.719     366.728
  O     -765.553     406.055     365.963
  H     -767.764     405.523     367.268
  H     -765.699     403.610     369.271
  H     -765.545     405.292     368.699
  H     -764.105     404.258     368.828
  H     -759.408     402.810     365.083
  H     -761.051     403.399     364.998
  H     -759.725     404.439     364.537

 3  4  5  6  7  8  9  10  11  12  23  26  30  31 0
 6-311+G(2d,p)
 ****
 33  35  36  37  38 0
 6-311+G(2d,p)
 ****
 1  2  13  14  15  16  17  18  19  20  21  22  24  25 0
 3-21G
 ****
 27  28  29  32  34  39  40  41  42  43  44  45  46  47  48  49 0
 3-21G
 ****


