%nproc=1
%NoSave
%Mem=1900MB
#P OB98/GEN NMR

erre ene a

0 1
  C      993.701     -21.188    1547.170
  O      994.282     -22.269    1547.867
  H      994.112     -21.171    1546.155
  H      993.935     -20.242    1547.658
  H      992.613     -21.326    1547.103
  P      993.933     -22.451    1549.426
  C      996.337     -21.832    1550.178
  O      995.321     -22.828    1550.158
  C      997.577     -22.349    1550.919
  O      997.202     -22.634    1552.301
  C      998.176     -23.638    1550.324
  O      999.596     -23.615    1550.588
  C      997.500     -24.695    1551.169
  O      998.120     -25.951    1551.014
  C      997.531     -24.029    1552.545
  N      996.616     -24.651    1553.480
  C      996.839     -26.014    1553.759
  O      997.762     -26.606    1553.213
  N      995.997     -26.636    1554.644
  C      994.982     -26.003    1555.140
  N      994.175     -26.706    1555.984
  C      994.680     -24.601    1554.826
  C      995.525     -23.970    1554.006
  O      992.803     -23.371    1549.733
  O      993.643     -20.964    1549.937
  H      999.066     -25.913    1551.326
  H      992.686     -20.834    1550.041
  H      993.799     -24.114    1555.254
  H      995.398     -22.941    1553.710
  H      998.557     -24.073    1552.970
  H      996.450     -24.844    1550.840
  H      997.981     -23.734    1549.246
  H      998.336     -21.522    1550.939
  H      994.418     -27.673    1556.154
  H      995.941     -20.951    1550.682
  H      993.335     -26.311    1556.424
  H      996.610     -21.553    1549.139
  P     1000.663     -22.916    1549.591
  C     1001.368     -24.914    1548.111
  O     1001.747     -23.982    1549.147
  O     1001.239     -21.632    1550.134
  O      999.842     -22.625    1548.240
  H     1000.190     -21.825    1547.823
  H     1002.186     -25.574    1547.908
  H     1001.115     -24.375    1547.222
  H     1000.522     -25.484    1548.436

 6  7  8  9  10  11  12  13  14  15  16  26  30  31  32  33  35 0
 6-311+G(2d,p)
 ****
 37  38 0
 6-311+G(2d,p)
 ****
 1  2  3  4  5  17  18  19  20  21  22  23  24  25 0
 3-21G
 ****
 27  28  29  34  36  39  40  41  42  43  44  45  46 0
 3-21G
 ****


