%nproc=1
%NoSave
%Mem=1900MB
#P OB98/GEN NMR

erre ene a

0 1
  C     -978.366    -608.561    -519.651
  O     -977.320    -607.726    -519.194
  H     -979.318    -608.043    -519.492
  H     -978.370    -609.503    -519.089
  H     -978.248    -608.768    -520.715
  P     -975.830    -608.323    -519.282
  C     -974.305    -606.224    -519.418
  O     -974.862    -607.239    -518.599
  C     -973.490    -605.254    -518.558
  O     -974.359    -604.507    -517.692
  C     -972.493    -605.949    -517.635
  O     -971.309    -606.370    -518.316
  C     -972.228    -604.839    -516.620
  O     -971.217    -603.931    -517.093
  C     -973.600    -604.155    -516.514
  N     -974.302    -604.504    -515.276
  C     -974.704    -603.432    -514.488
  O     -974.503    -602.248    -514.793
  N     -975.329    -603.757    -513.325
  C     -975.542    -605.026    -512.842
  O     -976.050    -605.258    -511.741
  C     -975.105    -606.122    -513.741
  C     -974.508    -605.810    -514.886
  O     -975.479    -608.204    -520.848
  O     -975.674    -609.719    -518.767
  H     -975.562    -609.083    -521.261
  H     -971.270    -603.141    -516.518
  H     -975.620    -602.987    -512.733
  H     -975.269    -607.130    -513.383
  H     -974.157    -606.592    -515.534
  H     -973.488    -603.051    -516.538
  H     -971.867    -605.248    -515.664
  H     -972.971    -606.797    -517.117
  H     -972.973    -604.545    -519.225
  H     -975.118    -605.663    -519.905
  H     -973.685    -606.673    -520.196
  P     -970.841    -607.883    -518.146
  C     -969.674    -607.625    -520.512
  O     -969.597    -608.080    -519.163
  O     -972.034    -608.672    -518.847
  O     -970.553    -608.285    -516.736
  H     -972.408    -608.190    -519.610
  H     -968.757    -607.847    -521.016
  H     -969.840    -606.568    -520.523
  H     -970.483    -608.118    -521.009

 6  7  8  9  10  11  12  13  14  15  16  27  31  32  33  34  35 0
 6-311+G(2d,p)
 ****
 36  37 0
 6-311+G(2d,p)
 ****
 1  2  3  4  5  17  18  19  20  21  22  23  24  25 0
 3-21G
 ****
 26  28  29  30  38  39  40  41  42  43  44  45 0
 3-21G
 ****


