%nproc=1
%NoSave
%Mem=1900MB
#P OB98/GEN NMR

erre ene a

0 1
  C      267.811     374.952      78.851
  O      266.816     375.189      77.880
  H      267.583     375.536      79.746
  H      268.792     375.259      78.474
  H      267.836     373.890      79.129
  P      266.823     374.322      76.536
  C      268.494     373.957      74.601
  O      268.101     374.796      75.680
  C      269.875     374.371      74.104
  O      270.868     374.152      75.135
  C      270.360     373.580      72.892
  O      269.711     373.990      71.704
  C      271.852     373.855      72.948
  O      272.161     375.120      72.348
  C      272.126     373.896      74.466
  N      272.734     372.644      74.944
  C      273.935     372.285      74.354
  O      274.495     372.954      73.491
  N      274.457     371.090      74.753
  C      273.832     370.171      75.556
  O      274.221     369.015      75.692
  C      272.599     370.631      76.200
  C      272.095     371.825      75.868
  O      265.536     374.281      75.782
  O      267.256     372.859      77.034
  H      266.462     372.291      77.086
  H      271.589     375.779      72.800
  H      275.315     370.797      74.299
  H      272.102     369.968      76.905
  H      271.167     372.171      76.295
  H      272.792     374.728      74.717
  H      272.424     373.085      72.416
  H      270.192     372.504      73.068
  H      269.858     375.447      73.878
  H      267.766     374.056      73.793
  H      268.503     372.915      74.941
  P      269.888     373.134      70.353
  C      271.818     371.839      69.256
  O      271.461     372.938      70.093
  O      269.119     373.639      69.174
  O      269.408     371.665      70.757
  H      268.760     371.346      70.085
  H      272.882     371.802      69.151
  H      271.368     371.963      68.293
  H      271.471     370.928      69.697

 6  7  8  9  10  11  12  13  14  15  16  27  31  32  33  34  35 0
 6-311+G(2d,p)
 ****
 36  37 0
 6-311+G(2d,p)
 ****
 1  2  3  4  5  17  18  19  20  21  22  23  24  25 0
 3-21G
 ****
 26  28  29  30  38  39  40  41  42  43  44  45 0
 3-21G
 ****


