%nproc=1
%NoSave
%Mem=1900MB
#P OB98/GEN NMR

erre ene a

0 1
  C      528.725     895.886      96.511
  O      528.636     897.193      97.034
  H      528.318     895.885      95.495
  H      528.136     895.197      97.121
  H      529.766     895.556      96.477
  P      529.205     897.428      98.520
  C      530.386     899.724      98.192
  O      530.531     898.315      98.323
  C      531.740     900.414      98.336
  O      532.013     900.646      99.738
  C      532.903     899.601      97.759
  O      533.781     900.464      97.042
  C      533.600     899.039      98.988
  O      534.979     898.762      98.749
  C      533.314     900.108     100.047
  N      533.365     899.573     101.405
  C      534.623     899.517     102.017
  O      535.625     899.905     101.413
  N      534.724     898.984     103.273
  C      533.675     898.489     103.845
  N      533.844     897.953     105.086
  C      532.338     898.477     103.223
  C      532.254     899.039     102.012
  O      529.772     895.987      98.922
  O      528.219     897.989      99.496
  H      535.454     899.618      98.689
  H      529.957     895.928      99.884
  H      531.494     898.037     103.728
  H      531.311     899.070     101.473
  H      534.044     900.933      99.966
  H      533.116     898.088      99.275
  H      532.576     898.802      97.103
  H      531.680     901.408      97.864
  H      534.778     897.968     105.482
  H      529.703     900.083      98.973
  H      533.103     897.510     105.611
  H      529.961     899.957      97.209
  P      533.436     900.676      95.486
  C      532.175     902.902      95.880
  O      532.097     901.572      95.396
  O      532.954     899.218      95.011
  O      534.590     901.178      94.686
  H      533.675     898.755      94.559
  H      531.225     903.381      95.762
  H      532.917     903.440      95.327
  H      532.442     902.889      96.916

 6  7  8  9  10  11  12  13  14  15  16  26  30  31  32  33  35 0
 6-311+G(2d,p)
 ****
 37  38 0
 6-311+G(2d,p)
 ****
 1  2  3  4  5  17  18  19  20  21  22  23  24  25 0
 3-21G
 ****
 27  28  29  34  36  39  40  41  42  43  44  45  46 0
 3-21G
 ****


