%nproc=1
%NoSave
%Mem=1900MB
#P OB98/GEN NMR

erre ene a

0 1
  C     1683.946    -895.970     457.716
  O     1682.924    -895.000     457.541
  P     1682.894    -894.070     456.286
  C     1680.302    -894.510     456.229
  O     1681.385    -893.610     456.017
  C     1679.106    -893.990     455.431
  O     1679.337    -894.170     453.970
  C     1677.854    -894.820     455.728
  O     1677.036    -894.160     456.753
  C     1677.126    -894.890     454.358
  O     1676.374    -893.710     454.135
  C     1678.340    -894.990     453.398
  N     1678.924    -896.340     453.208
  C     1678.081    -897.370     452.765
  O     1676.929    -897.250     452.474
  N     1678.713    -898.600     452.658
  C     1680.058    -898.880     452.884
  O     1680.527    -900.000     453.013
  C     1680.897    -897.690     453.089
  C     1680.302    -896.500     453.265
  O     1683.171    -895.070     455.048
  O     1683.841    -892.900     456.304
  H     1676.079    -893.700     453.228
  H     1684.119    -895.020     454.797
  H     1678.124    -899.390     452.451
  H     1681.987    -897.810     453.127
  H     1680.916    -895.640     453.441
  H     1678.061    -894.610     452.412
  H     1676.408    -895.710     454.353
  H     1678.094    -895.830     456.054
  H     1678.919    -892.970     455.614
  H     1680.048    -894.560     457.265
  H     1680.555    -895.520     455.914
  P     1676.698    -894.910     458.076
  C     1677.739    -893.020     459.483
  O     1676.538    -893.770     459.176
  O     1677.592    -896.070     458.463
  O     1675.188    -895.430     457.836
  H     1675.148    -896.320     457.536
  H     1677.481    -892.150     460.064
  H     1678.213    -892.660     458.506
  H     1678.424    -893.650     460.012
  H     1683.784    -896.497     458.633
  H     1684.898    -895.483     457.748
  H     1683.926    -896.661     456.899

 3  4  5  6  7  8  9  10  11  12  13  23  28  29  30  31  32 0
 6-311+G(2d,p)
 ****
 33  34 0
 6-311+G(2d,p)
 ****
 1  2  14  15  16  17  18  19  20  21  22  24  25  26  27 0
 3-21G
 ****
 35  36  37  38  39  40  41  42  43  44  45 0
 3-21G
 ****


