%nproc=1
%NoSave
%Mem=1900MB
#P OB98/GEN NMR

erre ene a

0 1
  C      -16.433     -95.967     -47.202
  O      -15.222     -96.176     -46.507
  H      -16.209     -95.518     -48.174
  H      -17.077     -95.285     -46.641
  H      -16.949     -96.918     -47.364
  P      -15.329     -96.871     -45.065
  C      -15.114     -94.652     -43.729
  O      -14.542     -95.915     -44.046
  C      -14.053     -93.744     -43.114
  O      -13.762     -94.186     -41.769
  C      -12.717     -93.758     -43.848
  O      -12.740     -92.944     -45.007
  C      -11.779     -93.242     -42.764
  O      -11.790     -91.811     -42.694
  C      -12.390     -93.833     -41.486
  N       -7.892     -95.467     -39.736
  C       -8.343     -94.234     -40.056
  N       -9.568     -93.880     -40.499
  C      -10.365     -94.957     -40.593
  C      -10.043     -96.273     -40.310
  C       -8.737     -96.517     -39.857
  N       -8.266     -97.775     -39.567
  N      -11.116     -97.101     -40.574
  C      -12.070     -96.299     -40.999
  N      -11.663     -94.996     -41.021
  O      -14.367     -98.144     -45.210
  O      -16.707     -97.256     -44.644
  H      -11.355     -91.488     -43.506
  H      -14.895     -98.926     -45.458
  H       -7.624     -93.427     -39.943
  H      -13.060     -96.613     -41.308
  H      -12.406     -93.110     -40.663
  H      -10.749     -93.550     -42.950
  H      -12.433     -94.786     -44.101
  H      -14.455     -92.725     -43.057
  H      -15.927     -94.794     -43.009
  H      -15.520     -94.207     -44.643
  H       -7.309     -97.878     -39.269
  H       -8.854     -98.575     -39.756
  P      -12.219     -93.566     -46.387
  C      -10.332     -91.955     -47.162
  O      -11.686     -92.356     -47.295
  O      -13.569     -94.022     -47.116
  O      -11.256     -94.696     -46.238
  H      -13.705     -94.982     -47.011
  H      -10.133     -91.143     -47.830
  H       -9.691     -92.778     -47.401
  H      -10.150     -91.641     -46.155

 6  7  8  9  10  11  12  13  14  15  25  28  32  33  34  35 0
 6-311+G(2d,p)
 ****
 36  37  40 0
 6-311+G(2d,p)
 ****
 1  2  3  4  5  16  17  18  19  20  21  22  23  24 0
 3-21G
 ****
 26  27  29  30  31  38  39 41  42  43  44  45  46  47  48 0
 3-21G
 ****


