%nproc=1
%NoSave
%Mem=1900MB
#P OB98/GEN NMR

erre ene a

0 1
  C       63.755    -281.521    -123.065
  O       64.986    -280.833    -123.233
  P       65.450    -280.487    -124.730
  C       64.526    -278.101    -124.351
  O       64.558    -279.236    -125.205
  C       65.457    -277.011    -124.865
  O       65.196    -275.782    -124.126
  C       66.954    -277.330    -124.711
  O       67.643    -276.948    -125.912
  C       67.407    -276.396    -123.603
  O       68.796    -276.103    -123.685
  C       66.486    -275.200    -123.855
  N       68.961    -271.574    -121.358
  C       69.238    -272.150    -122.582
  N       70.368    -271.738    -123.198
  N       68.482    -273.051    -123.152
  C       67.368    -273.344    -122.435
  C       66.978    -272.836    -121.216
  C       67.858    -271.884    -120.572
  O       67.713    -271.405    -119.449
  N       65.778    -273.363    -120.816
  C       65.440    -274.192    -121.786
  N       66.399    -274.252    -122.767
  O       64.865    -281.715    -125.575
  O       66.920    -280.348    -124.925
  H       69.273    -276.930    -123.484
  H       65.588    -282.150    -126.069
  H       69.587    -270.899    -120.958
  H       64.539    -274.792    -121.805
  H       66.807    -274.652    -124.751
  H       67.203    -276.865    -122.633
  H       70.976    -271.023    -122.833
  H       67.165    -278.379    -124.481
  H       70.578    -272.131    -124.105
  H       65.210    -276.806    -125.914
  H       64.841    -278.398    -123.345
  H       63.498    -277.726    -124.301
  P       68.718    -278.005    -126.470
  C       66.814    -278.710    -128.101
  O       67.872    -279.114    -127.251
  O       69.213    -278.759    -125.149
  O       69.841    -277.380    -127.227
  H       70.106    -279.133    -125.283
  H       66.796    -277.627    -128.248
  H       65.866    -279.020    -127.656
  H       66.931    -279.199    -129.072
  H       63.576    -281.683    -122.023
  H       63.802    -282.464    -123.569
  H       62.960    -280.935    -123.477

 3  4  5  6  7  8  9  10  11  12  23  26  30  31  33  0
 6-311+G(2d,p)
 ****
 35  36  37  38 0
 6-311+G(2d,p)
 ****
 1  2  13  14  15  16  17  18  19  20  21  22  24  25  27  28  29 0
 3-21G
 ****
 32  34  39  40  41  42  43  44  45  46  47  48  49 0
 3-21G
 ****


