%nproc=1
%NoSave
%Mem=1900MB
#P OB98/GEN NMR

erre ene a

0 1
  C      -41.232    -771.598    -194.774
  O      -39.965    -771.575    -194.149
  H      -41.998    -771.761    -194.012
  H      -41.273    -772.423    -195.493
  H      -41.429    -770.650    -195.279
  P      -38.699    -771.259    -195.082
  C      -38.151    -768.967    -193.995
  O      -38.582    -769.655    -195.161
  C      -36.922    -768.110    -194.296
  O      -37.202    -767.281    -195.464
  C      -36.513    -767.166    -193.154
  O      -35.081    -767.068    -193.156
  C      -37.072    -765.826    -193.592
  O      -36.421    -764.721    -192.966
  C      -36.852    -765.923    -195.103
  N      -37.072    -761.087    -196.473
  C      -36.108    -761.772    -195.775
  N      -35.026    -761.066    -195.373
  N      -36.190    -763.047    -195.486
  C      -37.311    -763.640    -195.976
  C      -38.344    -763.068    -196.683
  C      -38.250    -761.649    -196.967
  O      -39.088    -760.981    -197.573
  N      -39.320    -764.000    -196.973
  C      -38.863    -765.127    -196.455
  N      -37.650    -764.956    -195.838
  O      -39.229    -771.674    -196.537
  O      -37.440    -771.973    -194.718
  H      -36.370    -764.912    -192.008
  H      -38.976    -772.595    -196.739
  H      -36.971    -760.103    -196.653
  H      -39.368    -766.081    -196.492
  H      -35.807    -765.757    -195.380
  H      -38.154    -765.773    -193.357
  H      -34.872    -760.093    -195.592
  H      -36.855    -767.479    -192.163
  H      -34.280    -761.566    -194.892
  H      -36.094    -768.776    -194.571
  H      -37.895    -769.700    -193.219
  H      -38.965    -768.332    -193.631
  P      -34.312    -767.186    -191.746
  C      -34.021    -769.773    -191.723
  O      -34.627    -768.630    -191.131
  O      -35.161    -766.207    -190.794
  O      -32.875    -766.792    -191.795
  H      -34.588    -765.850    -190.095
  H      -34.331    -770.653    -191.199
  H      -32.956    -769.681    -191.667
  H      -34.320    -769.844    -192.748

 6  7  8  9  10  11  12  13  14  15  26  29  33  34 0
 6-311+G(2d,p)
 ****
 36  38  39  40  41 0
 6-311+G(2d,p)
 ****
 1  2  3  4  5  16  17  18  19  20  21  22  23  24  25 0
 3-21G
 ****
 27  28  30  31  32  35  37  42  43  44  45  46  47 0
 3-21G
 ****
 48  49 0
 3-21G
 ****


