%nproc=1
%NoSave
%Mem=1900MB
#P OB98/GEN NMR

erre ene a

0 1
  C     1854.921      77.969     320.655
  O     1854.152      79.019     321.206
  H     1854.605      77.019     321.092
  H     1855.976      78.123     320.869
  H     1854.756      77.924     319.569
  P     1854.526      80.508     320.772
  C     1856.709      81.952     320.731
  O     1856.098      80.713     321.108
  C     1857.349      82.579     321.964
  O     1858.573      81.884     322.287
  C     1857.743      84.036     321.738
  O     1856.664      84.934     321.876
  C     1858.761      84.221     322.893
  O     1858.102      84.539     324.121
  C     1859.441      82.831     322.959
  N     1860.773      82.861     322.362
  C     1861.814      83.170     323.256
  O     1861.641      83.373     324.446
  N     1863.063      83.239     322.698
  C     1863.375      83.084     321.365
  O     1864.488      83.221     320.929
  C     1862.233      82.788     320.486
  C     1861.002      82.699     321.005
  O     1853.779      81.418     321.857
  O     1854.135      80.877     319.374
  H     1853.003      81.840     321.449
  H     1858.784      84.465     324.827
  H     1863.813      83.445     323.310
  H     1862.418      82.666     319.425
  H     1860.128      82.500     320.362
  H     1859.519      82.512     323.999
  H     1859.452      85.025     322.678
  H     1858.276      84.162     320.794
  H     1856.639      82.490     322.804
  H     1855.953      82.619     320.323
  H     1857.453      81.742     319.962
  P     1856.901      86.440     321.337
  C     1858.002      88.581     322.374
  O     1857.543      87.247     322.542
  O     1855.372      86.958     321.260
  O     1857.604      86.506     320.028
  H     1854.794      86.489     321.932
  H     1858.397      88.942     323.301
  H     1857.187      89.203     322.068
  H     1858.768      88.603     321.627

 6  7  8  9  10  11  12  13  14  15  16  27  31  32  33  34  35 0
 6-311+G(2d,p)
 ****
 36  37 0
 6-311+G(2d,p)
 ****
 1  2  3  4  5  17  18  19  20  21  22  23  24  25 0
 3-21G
 ****
 26  28  29  30  38  39  40  41  42  43  44  45 0
 3-21G
 ****


