%nproc=1
%NoSave
%Mem=1900MB
#P OB98/GEN NMR

erre ene a

0 1
  C     -254.740    -326.190    -428.874
  O     -255.696    -326.750    -427.975
  P     -255.381    -327.861    -426.872
  C     -255.205    -330.488    -426.907
  O     -255.757    -329.299    -427.466
  C     -255.629    -331.729    -427.717
  O     -257.089    -331.828    -427.680
  C     -255.226    -331.633    -429.208
  O     -254.726    -332.864    -429.731
  C     -256.478    -331.055    -429.853
  O     -256.523    -331.282    -431.263
  C     -257.595    -331.697    -429.028
  N     -262.525    -331.460    -430.365
  C     -261.565    -332.419    -430.690
  N     -261.970    -333.423    -431.488
  N     -260.325    -332.358    -430.286
  C     -260.039    -331.257    -429.561
  C     -260.895    -330.238    -429.185
  C     -262.280    -330.333    -429.600
  O     -263.162    -329.521    -429.326
  N     -260.238    -329.289    -428.442
  C     -258.992    -329.709    -428.374
  N     -258.820    -330.907    -429.046
  O     -255.862    -327.561    -425.485
  O     -253.766    -327.893    -426.819
  H     -256.675    -332.237    -431.406
  H     -253.527    -328.120    -425.898
  H     -263.473    -331.572    -430.688
  H     -258.181    -329.212    -427.867
  H     -257.871    -332.676    -429.397
  H     -256.453    -329.967    -429.705
  H     -262.889    -333.464    -431.940
  H     -254.392    -330.927    -429.330
  H     -261.227    -333.996    -431.902
  H     -255.216    -332.619    -427.237
  H     -255.598    -330.557    -425.889
  H     -254.117    -330.417    -426.842
  P     -253.202    -333.355    -429.840
  C     -251.207    -333.034    -431.408
  O     -252.599    -332.866    -431.232
  O     -253.305    -334.945    -430.020
  O     -252.359    -333.019    -428.638
  H     -252.858    -335.398    -429.261
  H     -250.885    -332.433    -432.271
  H     -250.995    -334.085    -431.613
  H     -250.662    -332.713    -430.526
  H     -255.221    -325.470    -429.503
  H     -254.320    -326.967    -429.477
  H     -253.962    -325.712    -428.316

 3  4  5  6  7  8  9  10  11  12  23  26  30  31 0
 6-311+G(2d,p)
 ****
 33  35  36  37  38 0
 6-311+G(2d,p)
 ****
 1  2  13  14  15  16  17  18  19  20  21  22  24  25 0
 3-21G
 ****
 27  28  29  32  34  39  40  41  42  43  44  45  46  47  48  49 0
 3-21G
 ****


