%nproc=1
%NoSave
%Mem=1900MB
#P OB98/GEN NMR

erre ene a

0 1
  C     -177.656    -296.603    -384.932
  O     -177.812    -296.648    -383.522
  P     -176.787    -295.784    -382.631
  C     -178.626    -293.945    -382.553
  O     -177.250    -294.249    -382.747
  C     -178.850    -293.243    -381.213
  O     -178.064    -292.014    -381.190
  C     -180.310    -292.862    -380.929
  O     -180.509    -292.997    -379.516
  C     -180.346    -291.401    -381.351
  O     -181.459    -290.680    -380.850
  C     -178.977    -290.943    -380.855
  N     -179.798    -285.896    -381.064
  C     -180.354    -286.871    -380.306
  N     -180.078    -288.192    -380.300
  C     -179.110    -288.478    -381.188
  C     -178.464    -287.601    -382.042
  C     -178.844    -286.248    -381.961
  N     -178.281    -285.257    -382.742
  N     -177.547    -288.264    -382.830
  C     -177.638    -289.525    -382.460
  N     -178.551    -289.699    -381.459
  O     -175.441    -295.828    -383.489
  O     -176.584    -296.290    -381.236
  H     -181.410    -289.747    -381.145
  H     -174.656    -295.907    -382.911
  H     -181.121    -286.545    -379.611
  H     -177.077    -290.346    -382.892
  H     -178.956    -290.813    -379.766
  H     -180.400    -291.351    -382.445
  H     -181.034    -293.496    -381.454
  H     -178.462    -293.891    -380.413
  H     -179.206    -294.877    -382.556
  H     -178.756    -284.367    -382.750
  H     -177.728    -285.558    -383.538
  H     -178.981    -293.329    -383.387
  P     -181.963    -293.396    -378.968
  C     -182.060    -295.807    -379.852
  O     -182.494    -294.474    -380.036
  O     -182.804    -292.095    -379.372
  O     -182.039    -293.763    -377.526
  H     -182.674    -291.861    -380.311
  H     -182.573    -296.444    -380.583
  H     -182.306    -296.154    -378.847
  H     -180.984    -295.875    -380.023
  H     -178.399    -297.219    -385.393
  H     -176.683    -296.961    -385.195
  H     -177.768    -295.594    -385.271

 3  4  5  6  7  8  9  10  11  12  22  25  29  30  31  32 0
 6-311+G(2d,p)
 ****
 33  36  37 0
 6-311+G(2d,p)
 ****
 1  2  13  14  15  16  17  18  19  20  21  23  24  26 0
 3-21G
 ****
 27  28  34  35  38  39  40  41  42  43  44  45  46  47  48 0
 3-21G
 ****


