%nproc=1
%NoSave
%Mem=1900MB
#P OB98/GEN NMR

erre ene a

0 1
  C      258.122    -606.387     -53.301
  O      258.786    -606.725     -52.097
  H      257.851    -605.327     -53.267
  H      257.212    -606.979     -53.416
  H      258.783    -606.552     -54.157
  P      259.157    -608.257     -51.814
  C      261.614    -607.678     -51.314
  O      260.411    -608.252     -50.818
  C      262.640    -607.501     -50.190
  O      262.275    -606.323     -49.415
  C      262.708    -608.702     -49.224
  O      264.069    -608.887     -48.839
  C      261.881    -608.227     -48.047
  O      262.224    -608.917     -46.858
  C      262.153    -606.721     -48.036
  N      261.076    -606.000     -47.348
  C      261.322    -605.628     -46.023
  O      262.399    -605.913     -45.491
  N      260.319    -605.031     -45.312
  C      259.153    -604.844     -45.853
  N      258.190    -604.263     -45.081
  C      258.842    -605.241     -47.252
  C      259.845    -605.800     -47.934
  O      259.322    -609.126     -53.015
  O      257.953    -608.768     -50.886
  H      263.174    -608.783     -46.666
  H      257.240    -609.140     -51.436
  H      257.854    -605.071     -47.652
  H      259.707    -606.129     -48.959
  H      263.104    -606.506     -47.528
  H      260.818    -608.420     -48.249
  H      262.312    -609.628     -49.667
  H      263.618    -607.303     -50.639
  H      258.441    -604.039     -44.124
  H      261.370    -606.700     -51.743
  H      257.243    -604.115     -45.378
  H      262.030    -608.319     -52.105
  P      264.771    -610.327     -48.955
  C      267.076    -609.317     -49.486
  O      266.338    -610.176     -48.619
  O      264.475    -611.058     -50.222
  O      264.205    -611.132     -47.688
  H      264.159    -612.086     -47.906
  H      268.099    -609.289     -49.174
  H      266.664    -608.330     -49.446
  H      267.018    -609.687     -50.488

 6  7  8  9  10  11  12  13  14  15  16  26  30  31  32  33  35 0
 6-311+G(2d,p)
 ****
 37  38 0
 6-311+G(2d,p)
 ****
 1  2  3  4  5  17  18  19  20  21  22  23  24  25 0
 3-21G
 ****
 27  28  29  34  36  39  40  41  42  43  44  45  46 0
 3-21G
 ****


