%nproc=1
%NoSave
%Mem=1900MB
#P OB98/GEN NMR

erre ene a

0 1
  C       42.309    -140.969     286.831
  O       43.337    -141.699     287.472
  H       41.606    -140.595     287.579
  H       42.755    -140.117     286.311
  H       41.786    -141.593     286.102
  P       42.960    -143.150     288.043
  C       45.316    -144.135     287.578
  O       44.338    -143.807     288.552
  C       46.637    -144.505     288.251
  O       47.180    -143.314     288.889
  C       46.515    -145.600     289.323
  O       47.665    -146.447     289.238
  C       46.575    -144.817     290.625
  O       47.047    -145.601     291.717
  C       47.511    -143.673     290.243
  N       48.990    -141.758     294.716
  C       49.503    -142.736     293.939
  N       49.075    -143.150     292.728
  C       48.047    -142.394     292.306
  C       47.420    -141.360     292.980
  C       47.925    -141.056     294.257
  N       47.367    -140.110     295.085
  N       46.363    -140.869     292.236
  C       46.338    -141.610     291.146
  N       47.335    -142.546     291.144
  O       42.626    -143.968     286.706
  O       41.831    -143.187     289.018
  H       46.441    -146.356     291.850
  H       41.686    -143.851     286.478
  H       50.361    -143.264     294.347
  H       45.610    -141.532     290.350
  H       48.568    -143.962     290.277
  H       45.576    -144.444     290.875
  H       45.603    -146.201     289.241
  H       47.351    -144.805     287.474
  H       45.480    -143.268     286.929
  H       47.729    -140.035     296.023
  H       46.511    -139.657     294.803
  H       44.955    -144.968     286.968
  P       47.499    -147.837     288.452
  C       50.046    -148.024     287.944
  O       48.891    -148.626     288.516
  O       47.401    -147.380     286.921
  O       46.302    -148.628     288.870
  H       46.820    -147.986     286.425
  H       50.886    -148.674     288.069
  H       50.241    -147.092     288.432
  H       49.880    -147.853     286.901

 6  7  8  9  10  11  12  13  14  15  25  28  32  33  34  35 0
 6-311+G(2d,p)
 ****
 36  39  40 0
 6-311+G(2d,p)
 ****
 1  2  3  4  5  16  17  18  19  20  21  22  23  24 0
 3-21G
 ****
 26  27  29  30  31  37  38  41  42  43  44  45  46  47 0
 3-21G
 ****
 48 0
 3-21G
 ****


