%nproc=1
%NoSave
%Mem=1900MB
#P OB98/GEN NMR

erre ene a

0 1
  C      325.515    -491.370     362.185
  O      324.567    -492.028     363.042
  P      323.224    -491.300     363.537
  C      323.615    -492.175     365.937
  O      322.687    -492.050     364.858
  C      323.170    -493.234     366.942
  O      323.624    -494.543     366.536
  C      323.699    -493.027     368.356
  O      322.945    -492.030     369.030
  C      323.571    -494.434     368.934
  O      322.219    -494.686     369.359
  C      323.922    -495.308     367.726
  N      327.117    -499.094     369.001
  C      325.777    -498.973     369.111
  N      324.997    -497.923     368.749
  C      325.741    -496.944     368.209
  C      327.120    -496.924     368.041
  C      327.826    -498.064     368.467
  N      329.192    -498.185     368.373
  N      327.527    -495.734     367.476
  C      326.412    -495.051     367.291
  N      325.307    -495.742     367.713
  O      322.190    -491.125     362.469
  O      323.710    -489.879     364.091
  H      322.170    -495.624     369.630
  H      322.992    -489.221     363.995
  H      325.259    -499.822     369.540
  H      326.351    -494.069     366.850
  H      323.300    -496.207     367.685
  H      324.221    -494.595     369.807
  H      324.757    -492.742     368.327
  H      322.075    -493.263     366.943
  H      323.697    -491.205     366.436
  H      329.628    -499.016     368.737
  H      329.726    -497.402     368.024
  H      324.599    -492.436     365.515
  P      323.665    -490.709     369.583
  C      323.063    -491.259     372.021
  O      322.945    -490.324     370.959
  O      323.812    -489.599     368.597
  O      325.102    -491.239     370.071
  H      325.754    -490.525     369.986
  H      322.344    -492.067     371.872
  H      322.841    -490.749     372.967
  H      324.073    -491.668     372.061
  H      326.330    -492.032     361.980
  H      325.883    -490.490     362.670
  H      325.037    -491.098     361.267

 3  4  5  6  7  8  9  10  11  12  22  25  29  30  31  32 0
 6-311+G(2d,p)
 ****
 33  36  37 0
 6-311+G(2d,p)
 ****
 1  2  13  14  15  16  17  18  19  20  21  23  24  26 0
 3-21G
 ****
 27  28  34  35  38  39  40  41  42  43  44  45  46  47  48 0
 3-21G
 ****


