%nproc=1
%NoSave
%Mem=1900MB
#P OB98/GEN NMR

erre ene a

0 1
  C      401.764     107.022    -336.662
  O      402.417     107.604    -335.551
  H      400.776     107.477    -336.766
  H      401.645     105.946    -336.505
  H      402.336     107.203    -337.575
  P      403.908     107.095    -335.252
  C      404.426     109.322    -333.997
  O      404.394     107.901    -333.953
  C      403.091     109.897    -333.510
  O      402.934     109.574    -332.096
  C      402.994     111.425    -333.636
  O      401.618     111.779    -333.846
  C      403.422     111.877    -332.248
  O      403.046     113.214    -332.030
  C      402.714     110.821    -331.407
  N      401.508     111.488    -326.496
  C      400.769     111.555    -327.625
  N      401.164     111.353    -328.898
  C      402.468     111.029    -328.943
  C      403.351     110.928    -327.882
  C      402.824     111.180    -326.605
  N      403.580     111.137    -325.454
  N      404.617     110.602    -328.333
  C      404.496     110.503    -329.643
  N      403.216     110.752    -330.054
  O      404.760     107.740    -336.443
  O      404.082     105.616    -335.174
  H      402.097     113.351    -332.225
  H      404.823     107.111    -337.185
  H      399.719     111.801    -327.484
  H      405.294     110.265    -330.333
  H      401.630     110.988    -331.349
  H      404.506     111.815    -332.132
  H      403.605     111.834    -334.443
  H      402.269     109.398    -334.040
  H      404.613     109.634    -335.029
  H      405.233     109.687    -333.355
  H      403.130     111.358    -324.581
  H      404.568     110.943    -325.521
  P      401.179     112.407    -335.259
  C      398.672     111.685    -335.375
  O      399.611     112.744    -335.257
  O      401.250     111.130    -336.226
  O      402.061     113.496    -335.778
  H      401.707     111.368    -337.052
  H      397.680     112.085    -335.356
  H      398.798     111.004    -334.559
  H      398.831     111.169    -336.299

 6  7  8  9  10  11  12  13  14  15  25  28  32  33  34  35 0
 6-311+G(2d,p)
 ****
 36  37  40 0
 6-311+G(2d,p)
 ****
 1  2  3  4  5  16  17  18  19  20  21  22  23  24 0
 3-21G
 ****
 26  27  29  30  31  38  39 41  42  43  44  45  46  47  48 0
 3-21G
 ****


