%nproc=1
%NoSave
%Mem=1900MB
#P OB98/GEN NMR

erre ene a

0 1
  C      155.340     -87.318      68.029
  O      156.488     -87.709      67.304
  H      155.563     -86.390      68.560
  H      155.066     -88.083      68.760
  H      154.504     -87.138      67.347
  P      156.458     -89.109      66.525
  C      158.863     -89.658      65.752
  O      157.624     -89.049      65.427
  C      159.933     -88.599      66.045
  O      159.990     -87.667      64.927
  C      159.659     -87.772      67.311
  O      160.927     -87.381      67.850
  C      158.928     -86.575      66.736
  O      158.857     -85.520      67.660
  C      159.736     -86.348      65.455
  N      159.043     -85.499      64.500
  C      159.369     -84.141      64.530
  O      160.191     -83.716      65.343
  N      158.732     -83.292      63.662
  C      157.805     -83.745      62.880
  N      157.203     -82.848      62.053
  C      157.390     -85.164      62.856
  C      158.047     -85.978      63.682
  O      155.127     -89.533      66.003
  O      157.025     -90.157      67.596
  H      158.659     -84.669      67.207
  H      156.291     -90.692      67.952
  H      156.598     -85.489      62.200
  H      157.813     -87.037      63.738
  H      160.708     -85.894      65.684
  H      157.895     -86.841      66.486
  H      159.082     -88.320      68.061
  H      160.911     -89.092      66.097
  H      157.512     -81.886      62.109
  H      159.165     -90.268      64.895
  H      156.455     -83.082      61.417
  H      158.745     -90.311      66.623
  P      161.159     -87.080      69.407
  C      162.953     -85.309      68.852
  O      162.623     -86.464      69.617
  O      160.849     -88.236      70.302
  O      160.189     -85.846      69.739
  H      159.897     -85.911      70.667
  H      163.951     -85.001      69.084
  H      162.271     -84.519      69.088
  H      162.885     -85.540      67.810

 6  7  8  9  10  11  12  13  14  15  16  26  30  31  32  33  35 0
 6-311+G(2d,p)
 ****
 37  38 0
 6-311+G(2d,p)
 ****
 1  2  3  4  5  17  18  19  20  21  22  23  24  25 0
 3-21G
 ****
 27  28  29  34  36  39  40  41  42  43  44  45  46 0
 3-21G
 ****


