%nproc=1
%NoSave
%Mem=1900MB
#P OB98/GEN NMR

erre ene a

0 1
  C     -641.589      74.465      61.188
  O     -641.986      73.134      61.442
  P     -643.486      72.702      61.757
  C     -642.630      70.388      62.593
  O     -643.471      71.515      62.846
  C     -642.540      69.417      63.776
  O     -641.571      69.920      64.733
  C     -643.891      69.367      64.526
  O     -644.924      68.519      64.061
  C     -643.524      69.195      65.998
  O     -643.611      67.835      66.425
  C     -642.076      69.688      66.070
  N     -642.596      71.904      70.605
  C     -642.613      70.557      70.288
  N     -642.989      69.722      71.272
  N     -642.295      70.088      69.113
  C     -642.015      71.057      68.197
  C     -641.965      72.422      68.396
  C     -642.277      72.924      69.716
  O     -642.362      74.114      70.012
  N     -641.729      73.099      67.224
  C     -641.682      72.155      66.305
  N     -641.891      70.908      66.850
  O     -644.409      72.565      60.572
  O     -644.012      73.955      62.629
  H     -644.558      67.590      66.444
  H     -644.960      74.096      62.412
  H     -642.934      72.210      71.517
  H     -641.540      72.325      65.245
  H     -641.436      68.922      66.510
  H     -644.211      69.765      66.637
  H     -643.383      70.061      72.151
  H     -644.322      70.376      64.460
  H     -643.181      68.748      71.038
  H     -642.174      68.440      63.467
  H     -641.630      70.774      62.328
  H     -643.007      69.840      61.721
  P     -646.413      68.968      63.679
  C     -647.147      66.535      63.382
  O     -647.412      67.766      64.030
  O     -646.424      68.977      62.059
  O     -646.825      70.316      64.201
  H     -647.143      69.553      61.742
  H     -648.031      65.888      63.453
  H     -646.314      66.023      63.882
  H     -646.913      66.697      62.333
  H     -640.535      74.494      61.005
  H     -641.821      75.074      62.036
  H     -642.110      74.835      60.330

 3  4  5  6  7  8  9  10  11  12  23  26  30  31 0
 6-311+G(2d,p)
 ****
 33  35  36  37  38 0
 6-311+G(2d,p)
 ****
 1  2  13  14  15  16  17  18  19  20  21  22  24  25 0
 3-21G
 ****
 27  28  29  32  34  39  40  41  42  43  44  45  46  47  48  49 0
 3-21G
 ****


