%nproc=1
%NoSave
%Mem=1900MB
#P OB98/GEN NMR

erre ene a

0 1
  C      401.098     471.524    -369.128
  O      402.490     471.501    -369.372
  H      400.901     470.968    -368.204
  H      400.561     471.036    -369.944
  H      400.741     472.552    -369.000
  P      403.067     472.378    -370.583
  C      403.404     474.525    -369.184
  O      404.026     473.487    -369.938
  C      404.190     474.769    -367.895
  O      404.130     473.599    -367.047
  C      405.666     475.052    -368.118
  O      405.877     476.369    -368.577
  C      406.226     474.762    -366.725
  O      406.027     475.883    -365.855
  C      405.366     473.559    -366.288
  N      406.045     472.278    -366.454
  C      407.030     471.967    -365.518
  O      407.356     472.727    -364.616
  N      407.653     470.761    -365.698
  C      407.472     469.897    -366.744
  O      408.128     468.870    -366.900
  C      406.435     470.294    -367.712
  C      405.781     471.446    -367.527
  O      402.059     472.896    -371.552
  O      404.103     471.384    -371.303
  H      406.454     476.649    -366.284
  H      403.710     471.052    -372.135
  H      408.379     470.525    -365.035
  H      406.258     469.628    -368.551
  H      405.018     471.749    -368.235
  H      405.079     473.662    -365.237
  H      407.297     474.552    -366.749
  H      406.091     474.322    -368.822
  H      403.713     475.605    -367.354
  H      402.387     474.213    -368.943
  H      403.374     475.431    -369.793
  P      407.163     476.708    -369.472
  C      406.016     476.573    -371.780
  O      406.646     477.430    -370.814
  O      408.112     475.571    -369.692
  O      407.875     477.900    -368.682
  H      408.775     477.627    -368.423
  H      405.713     477.152    -372.627
  H      405.158     476.109    -371.340
  H      406.708     475.819    -372.093

 6  7  8  9  10  11  12  13  14  15  16  26  31  32  33  34  35 0
 6-311+G(2d,p)
 ****
 36  37 0
 6-311+G(2d,p)
 ****
 1  2  3  4  5  17  18  19  20  21  22  23  24  25 0
 3-21G
 ****
 27  28  29  30  38  39  40  41  42  43  44  45 0
 3-21G
 ****


