%nproc=1
%NoSave
%Mem=1900MB
#P OB98/GEN NMR

erre ene a

0 1
  C      103.982     -90.668     -41.160
  O      104.053     -91.489     -42.312
  P      103.584     -90.951     -43.746
  C      105.679     -91.653     -45.163
  O      104.306     -91.817     -44.870
  C      106.222     -92.974     -45.741
  O      106.414     -93.936     -44.681
  C      105.263     -93.581     -46.757
  O      105.629     -93.191     -48.076
  C      105.411     -95.071     -46.505
  O      106.573     -95.585     -47.167
  C      105.602     -95.105     -44.969
  N      104.397     -95.051     -44.113
  C      103.572     -96.169     -44.026
  O      103.791     -97.236     -44.604
  N      102.442     -96.011     -43.262
  C      102.101     -94.890     -42.555
  O      100.989     -94.681     -42.080
  C      103.142     -93.862     -42.469
  C      104.215     -93.978     -43.258
  O      104.314     -89.527     -43.842
  O      102.107     -90.838     -43.937
  H      107.346     -95.098     -46.828
  H      103.694     -88.809     -43.610
  H      101.765     -96.774     -43.300
  H      102.981     -93.019     -41.813
  H      104.983     -93.206     -43.240
  H      106.173     -95.994     -44.669
  H      104.567     -95.615     -46.911
  H      104.233     -93.285     -46.531
  H      107.202     -92.782     -46.199
  H      106.223     -91.382     -44.258
  H      105.814     -90.846     -45.891
  P      104.510     -92.597     -49.064
  C      105.218     -90.431     -50.244
  O      105.318     -91.849     -50.225
  O      103.438     -91.791     -48.409
  O      103.917     -93.909     -49.776
  H      103.091     -94.180     -49.326
  H      105.953     -90.038     -50.954
  H      105.421     -90.018     -49.254
  H      104.213     -90.145     -50.562
  H      104.340     -91.212     -40.311
  H      102.967     -90.375     -40.993
  H      104.585     -89.796     -41.305

 3  4  5  6  7  8  9  10  11  12  13  23  28  29  30  31  32 0
 6-311+G(2d,p)
 ****
 33  34 0
 6-311+G(2d,p)
 ****
 1  2  14  15  16  17  18  19  20  21  22  24  25  26  27 0
 3-21G
 ****
 35  36  37  38  39  40  41  42  43  44  45 0
 3-21G
 ****


