%nproc=1
%NoSave
%Mem=1900MB
#P OB98/GEN NMR

erre ene a

0 1
  C      199.880      11.674    -119.810
  O      199.759      10.767    -118.707
  P      198.315      10.151    -118.393
  C      197.662       8.454    -120.252
  O      198.269       8.663    -118.986
  C      196.701       7.263    -120.191
  O      195.818       7.231    -121.335
  C      197.401       5.912    -120.169
  O      197.830       5.561    -118.859
  C      196.275       4.990    -120.609
  O      195.405       4.712    -119.492
  C      195.548       5.843    -121.654
  N      194.022       4.429    -126.266
  C      193.295       4.624    -125.108
  N      191.959       4.420    -125.193
  N      193.824       4.987    -123.969
  C      195.162       5.172    -124.038
  C      195.993       5.010    -125.123
  C      195.396       4.592    -126.373
  O      195.993       4.391    -127.426
  N      197.296       5.285    -124.800
  C      197.254       5.633    -123.528
  N      195.982       5.563    -123.013
  O      197.358      10.959    -119.393
  O      197.879      10.300    -116.973
  H      194.676       4.162    -119.837
  H      196.458      11.010    -119.021
  H      193.563       4.144    -127.114
  H      198.108       5.940    -122.940
  H      194.462       5.703    -121.628
  H      196.642       4.026    -120.970
  H      191.481       4.188    -126.048
  H      198.222       5.878    -120.896
  H      191.406       4.590    -124.363
  H      196.089       7.366    -119.284
  H      198.425       8.276    -121.015
  H      197.148       9.370    -120.555
  P      199.136       4.641    -118.719
  C      200.973       6.439    -118.357
  O      200.148       5.449    -117.778
  O      199.796       4.738    -120.175
  O      198.863       3.231    -118.327
  H      200.262       3.908    -120.383
  H      201.470       6.991    -117.556
  H      200.382       7.140    -118.952
  H      201.736       5.970    -118.986
  H      200.896      11.999    -119.895
  H      199.247      12.521    -119.646
  H      199.588      11.179    -120.712

 3  4  5  6  7  8  9  10  11  12  23  26  30  31 0
 6-311+G(2d,p)
 ****
 33  35  36  37  38 0
 6-311+G(2d,p)
 ****
 1  2  13  14  15  16  17  18  19  20  21  22  24  25 0
 3-21G
 ****
 27  28  29  32  34  39  40  41  42  43  44  45  46  47  48  49 0
 3-21G
 ****


