%nproc=1
%NoSave
%Mem=1900MB
#P OB98/GEN NMR

erre ene a

0 1
  C     -834.973     794.453    1955.530
  O     -834.664     795.181    1954.359
  H     -835.844     793.835    1955.338
  H     -835.190     795.141    1956.341
  H     -834.134     793.794    1955.805
  P     -833.299     796.046    1954.355
  C     -834.257     798.203    1955.476
  O     -833.392     797.051    1955.594
  C     -834.310     798.961    1956.799
  O     -832.967     799.249    1957.254
  C     -835.079     800.290    1956.701
  O     -835.831     800.474    1957.896
  C     -833.968     801.332    1956.636
  O     -834.402     802.605    1957.107
  C     -832.867     800.667    1957.485
  N     -831.544     801.181    1957.138
  C     -831.078     802.260    1957.906
  O     -831.791     802.734    1958.808
  N     -829.853     802.810    1957.584
  C     -829.210     802.392    1956.548
  N     -828.022     802.996    1956.258
  C     -829.705     801.307    1955.676
  C     -830.863     800.743    1956.030
  O     -833.471     797.005    1953.080
  O     -832.041     795.248    1954.306
  H     -835.231     802.839    1956.646
  H     -832.620     797.191    1952.669
  H     -829.128     801.011    1954.810
  H     -831.308     799.954    1955.441
  H     -833.052     800.836    1958.566
  H     -833.638     801.451    1955.606
  H     -835.753     800.350    1955.841
  H     -834.790     798.301    1957.567
  H     -827.738     803.767    1956.887
  H     -835.252     797.864    1955.197
  H     -827.467     802.791    1955.459
  H     -833.861     798.846    1954.667
  P     -837.341     799.914    1957.903
  C     -838.612     802.166    1957.623
  O     -838.249     800.925    1957.037
  O     -837.835     800.158    1959.422
  O     -837.441     798.447    1957.542
  H     -837.902     799.310    1959.897
  H     -839.210     802.725    1956.934
  H     -837.728     802.721    1957.860
  H     -839.172     801.988    1958.517

 6  7  8  9  10  11  12  13  14  15  16  26  30  31  32  33  35 0
 6-311+G(2d,p)
 ****
 37  38 0
 6-311+G(2d,p)
 ****
 1  2  3  4  5  17  18  19  20  21  22  23  24  25 0
 3-21G
 ****
 27  28  29  34  36  39  40  41  42  43  44  45  46 0
 3-21G
 ****


