%nproc=1
%NoSave
%Mem=1900MB
#P OB98/GEN NMR

erre ene a

0 1
  C     -152.578    -944.731     -85.647
  O     -151.560    -944.242     -86.540
  P     -151.796    -944.286     -88.120
  C     -152.015    -941.676     -88.077
  O     -152.519    -942.912     -88.561
  C     -151.833    -940.670     -89.223
  O     -150.842    -941.169     -90.155
  C     -153.086    -940.449     -90.052
  O     -153.997    -939.585     -89.398
  C     -152.501    -939.847     -91.334
  O     -152.238    -938.432     -91.162
  C     -151.168    -940.618     -91.457
  N     -151.226    -941.648     -92.502
  C     -150.950    -941.249     -93.805
  O     -150.691    -940.082     -94.090
  N     -150.965    -942.244     -94.747
  C     -151.314    -943.545     -94.548
  O     -151.332    -944.372     -95.434
  C     -151.692    -943.897     -93.157
  C     -151.642    -942.960     -92.223
  O     -153.012    -945.330     -88.241
  O     -150.638    -944.714     -88.957
  H     -151.731    -938.136     -91.938
  H     -152.972    -945.767     -89.129
  H     -150.734    -941.958     -95.694
  H     -152.009    -944.903     -92.952
  H     -151.922    -943.191     -91.201
  H     -150.342    -939.941     -91.706
  H     -153.175    -939.960     -92.175
  H     -153.561    -941.401     -90.287
  H     -151.448    -939.750     -88.802
  H     -151.046    -941.835     -87.563
  H     -152.709    -941.267     -87.329
  P     -155.091    -940.269     -88.450
  C     -154.568    -938.812     -86.346
  O     -154.568    -940.086     -86.950
  O     -154.867    -941.818     -88.795
  O     -156.486    -939.763     -88.725
  H     -153.922    -942.025     -88.994
  H     -155.407    -938.208     -86.659
  H     -153.624    -938.293     -86.576
  H     -154.619    -938.964     -85.268
  H     -152.247    -944.623     -84.635
  H     -152.766    -945.764     -85.852
  H     -153.478    -944.170     -85.790

 3  4  5  6  7  8  9  10  11  12  13  23  28  29  30  31  32 0
 6-311+G(2d,p)
 ****
 33  34 0
 6-311+G(2d,p)
 ****
 1  2  14  15  16  17  18  19  20  21  22  24  25  26 0
 3-21G
 ****
 27  35  36  37  38  39  40  41  42  43  44  45 0
 3-21G
 ****


