%nproc=1
%NoSave
%Mem=1900MB
#P OB98/GEN NMR

erre ene a

0 1
  C      261.747     301.258     -38.411
  O      262.238     300.744     -39.624
  P      261.379     299.692     -40.477
  C      262.597     297.561     -39.701
  O      261.398     298.315     -39.642
  C      262.471     296.301     -38.849
  O      262.256     296.634     -37.454
  C      261.281     295.424     -39.206
  O      261.294     294.797     -40.475
  C      261.199     294.518     -37.991
  O      262.139     293.449     -38.070
  C      261.582     295.498     -36.853
  N      260.419     295.908     -36.066
  C      260.039     295.040     -35.046
  O      260.620     293.990     -34.791
  N      258.928     295.413     -34.333
  C      258.155     296.515     -34.562
  O      257.146     296.763     -33.916
  C      258.596     297.381     -35.664
  C      259.692     297.047     -36.358
  O      261.775     299.549     -41.904
  O      259.871     300.193     -40.266
  H      261.962     292.850     -37.312
  H      259.569     300.210     -39.340
  H      258.628     294.794     -33.598
  H      258.017     298.272     -35.867
  H      260.035     297.673     -37.178
  H      262.305     295.028     -36.172
  H      260.205     294.067     -37.884
  H      260.378     296.054     -39.206
  H      263.415     295.751     -38.904
  H      263.420     298.169     -39.311
  H      262.828     297.312     -40.744
  P      260.097     294.917     -41.533
  C      259.035     292.712     -40.672
  O      258.847     294.082     -40.980
  O      260.453     294.749     -42.972
  O      259.608     296.435     -41.290
  H      259.263     296.790     -42.132
  H      258.081     292.296     -40.352
  H      259.758     292.602     -39.853
  H      259.384     292.168     -41.549
  H      262.461     301.939     -37.997
  H      261.581     300.454     -37.724
  H      260.825     301.772     -38.588

 3  4  5  6  7  8  9  10  11  12  13  23  28  29  30  31  32 0
 6-311+G(2d,p)
 ****
 33  34 0
 6-311+G(2d,p)
 ****
 1  2  14  15  16  17  18  19  20  21  22  24  25  26  27 0
 3-21G
 ****
 35  36  37  38  39  40  41  42  43  44  45 0
 3-21G
 ****


