%nproc=1
%NoSave
%Mem=1900MB
#P OB98/GEN NMR

erre ene a

0 1
  C      -52.863      37.111    -131.291
  O      -53.960      37.935    -131.629
  P      -53.902      39.519    -131.417
  C      -53.940      39.882    -133.953
  O      -53.269      40.173    -132.735
  C      -54.530      41.143    -134.580
  O      -53.460      42.077    -134.885
  C      -55.316      40.893    -135.875
  O      -56.441      41.779    -135.865
  C      -54.332      41.294    -136.956
  O      -54.974      41.618    -138.181
  C      -53.607      42.454    -136.267
  N      -52.320      42.748    -136.878
  C      -52.320      43.628    -137.962
  O      -53.386      44.014    -138.444
  N      -51.115      44.032    -138.478
  C      -50.023      43.459    -138.075
  N      -48.846      43.937    -138.562
  C      -50.013      42.345    -137.105
  C      -51.177      42.074    -136.520
  O      -53.271      39.963    -130.140
  O      -55.435      39.982    -131.487
  H      -55.646      40.506    -130.689
  H      -55.484      40.839    -138.486
  H      -49.096      41.817    -136.893
  H      -51.267      41.292    -135.776
  H      -54.225      43.361    -136.291
  H      -53.636      40.466    -137.145
  H      -55.669      39.861    -135.963
  H      -55.176      41.624    -133.836
  H      -48.888      44.726    -139.191
  H      -54.748      39.180    -133.737
  H      -47.959      43.782    -138.082
  H      -53.250      39.392    -134.650
  P      -57.797      41.296    -136.582
  C      -58.557      40.011    -134.461
  O      -58.295      39.963    -135.847
  O      -57.236      40.721    -137.974
  O      -58.823      42.348    -136.847
  H      -57.943      40.766    -138.644
  H      -58.817      39.006    -134.120
  H      -59.398      40.677    -134.255
  H      -57.672      40.347    -133.913
  H      -53.103      36.091    -131.508
  H      -52.649      37.213    -130.248
  H      -52.007      37.405    -131.861

 3  4  5  6  7  8  9  10  11  12  13  24  27  28  29  30  32 0
 6-311+G(2d,p)
 ****
 34  35 0
 6-311+G(2d,p)
 ****
 1  2  14  15  16  17  18  19  20  21  22  23  25  26 0
 3-21G
 ****
 31  33  36  37  38  39  40  41  42  43  44  45  46 0
 3-21G
 ****


