%nproc=1
%NoSave
%Mem=1900MB
#P OB98/GEN NMR

erre ene a

0 1
  C      694.640     306.853    -268.067
  O      693.374     307.448    -268.271
  H      695.161     307.398    -267.274
  H      695.236     306.900    -268.979
  H      694.521     305.813    -267.754
  P      692.468     306.819    -269.439
  C      691.205     309.059    -269.622
  O      691.098     307.660    -269.373
  C      689.910     309.774    -269.229
  O      688.868     309.401    -270.172
  C      689.410     309.400    -267.822
  O      688.810     310.551    -267.225
  C      688.332     308.363    -268.106
  O      687.390     308.262    -267.042
  C      687.756     308.885    -269.424
  N      683.530     306.033    -269.572
  C      683.872     307.114    -268.839
  N      685.014     307.826    -268.880
  C      685.835     307.360    -269.839
  C      685.632     306.269    -270.664
  C      684.416     305.581    -270.500
  N      684.076     304.464    -271.224
  N      686.726     306.077    -271.484
  C      687.573     307.036    -271.169
  N      687.077     307.831    -270.160
  O      692.301     305.336    -269.399
  O      693.173     307.401    -270.751
  H      687.885     308.183    -266.197
  H      693.358     308.357    -270.666
  H      683.123     307.439    -268.111
  H      688.543     307.202    -271.620
  H      687.021     309.700    -269.278
  H      688.788     307.383    -268.247
  H      690.193     309.010    -267.180
  H      690.055     310.857    -269.325
  H      691.405     309.238    -270.689
  H      683.184     304.022    -271.042
  H      684.713     304.107    -271.925
  H      692.046     309.444    -269.038
  P      689.560     311.276    -266.015
  C      687.652     311.969    -264.429
  O      688.598     312.406    -265.404
  O      690.957     311.737    -266.298
  O      689.556     310.160    -264.863
  H      690.423     310.140    -264.417
  H      687.071     312.804    -264.097
  H      688.170     311.541    -263.596
  H      687.006     311.235    -264.863

 6  7  8  9  10  11  12  13  14  15  25  28  32  33  34  35 0
 6-311+G(2d,p)
 ****
 36  39  40 0
 6-311+G(2d,p)
 ****
 1  2  3  4  5  16  17  18  19  20  21  22  23  24 0
 3-21G
 ****
 26  27  29  30  31  37  38  41  42  43  44  45  46  47 0
 3-21G
 ****
 48 0
 3-21G
 ****


