%nproc=1
%NoSave
%Mem=1900MB
#P OB98/GEN NMR

erre ene a

0 1
  C     -267.435    -146.305     238.309
  O     -268.657    -146.463     239.003
  H     -266.747    -145.727     238.933
  H     -267.611    -145.755     237.379
  H     -266.982    -147.277     238.089
  P     -269.699    -147.530     238.416
  C     -271.253    -145.732     237.377
  O     -270.407    -146.845     237.140
  C     -272.307    -145.619     236.274
  O     -271.632    -145.413     235.003
  C     -273.193    -146.866     236.137
  O     -274.530    -146.451     235.836
  C     -272.604    -147.587     234.933
  O     -273.555    -148.424     234.276
  C     -272.113    -146.415     234.087
  N     -270.342    -145.827     229.401
  C     -271.378    -145.183     230.050
  N     -272.052    -144.250     229.342
  N     -271.730    -145.437     231.286
  C     -270.945    -146.368     231.883
  C     -269.893    -147.079     231.348
  C     -269.532    -146.811     229.967
  O     -268.639    -147.360     229.330
  N     -269.372    -147.961     232.259
  C     -270.105    -147.783     233.345
  N     -271.067    -146.825     233.168
  O     -270.860    -147.554     239.520
  O     -269.151    -148.898     238.170
  H     -273.102    -148.836     233.505
  H     -270.899    -148.434     239.938
  H     -270.125    -145.601     228.441
  H     -269.992    -148.327     234.277
  H     -272.919    -145.968     233.482
  H     -271.763    -148.213     235.254
  H     -271.808    -143.970     228.402
  H     -273.197    -147.492     237.030
  H     -272.793    -143.741     229.811
  H     -272.913    -144.724     236.458
  H     -270.642    -144.821     237.393
  H     -271.743    -145.849     238.350
  P     -275.544    -146.316     237.077
  C     -276.329    -148.712     236.473
  O     -276.010    -147.794     237.511
  O     -276.858    -145.689     236.409
  O     -275.031    -145.457     238.189
  H     -276.955    -144.757     236.684
  H     -276.621    -149.648     236.902
  H     -275.472    -148.857     235.849
  H     -277.135    -148.322     235.887

 6  7  8  9  10  11  12  13  14  15  26  29  33  34 0
 6-311+G(2d,p)
 ****
 36  38  39  40  41 0
 6-311+G(2d,p)
 ****
 1  2  3  4  5  16  17  18  19  20  21  22  23  24  25 0
 3-21G
 ****
 27  28  30  31  32  35  37  42  43  44  45  46  47 0
 3-21G
 ****
 48  49 0
 3-21G
 ****


