%nproc=1
%NoSave
%Mem=1900MB
#P OB98/GEN NMR

erre ene a

0 1
  C      341.727    -322.197    -552.617
  O      341.196    -320.989    -553.139
  P      340.400    -321.082    -554.534
  C      338.070    -319.990    -554.076
  O      338.831    -321.191    -554.170
  C      337.239    -319.992    -552.792
  O      338.096    -320.167    -551.640
  C      336.465    -318.701    -552.534
  O      335.319    -318.620    -553.366
  C      336.158    -318.864    -551.045
  O      335.056    -319.759    -550.851
  C      337.458    -319.501    -550.517
  N      340.169    -318.211    -546.356
  C      339.305    -319.226    -546.599
  N      338.612    -319.498    -547.727
  C      338.869    -318.574    -548.678
  C      339.710    -317.476    -548.573
  C      340.386    -317.307    -547.351
  N      341.254    -316.256    -547.113
  N      339.709    -316.745    -549.745
  C      338.895    -317.407    -550.549
  N      338.375    -318.524    -549.952
  O      340.752    -322.546    -555.063
  O      340.750    -320.024    -555.533
  H      334.268    -319.351    -551.254
  H      340.800    -322.566    -556.041
  H      339.151    -319.917    -545.774
  H      338.660    -317.117    -551.561
  H      337.269    -320.262    -549.743
  H      335.907    -317.912    -550.552
  H      337.099    -317.835    -552.689
  H      336.552    -320.852    -552.837
  H      337.395    -319.917    -554.935
  H      341.575    -316.127    -546.163
  H      341.304    -315.513    -547.788
  H      338.750    -319.125    -554.094
  P      335.413    -317.668    -554.652
  C      334.374    -319.637    -555.952
  O      335.451    -318.696    -555.890
  O      336.929    -317.163    -554.568
  O      334.376    -316.599    -554.725
  H      337.554    -317.905    -554.428
  H      334.498    -320.236    -556.859
  H      333.413    -319.111    -556.000
  H      334.408    -320.296    -555.084
  H      342.228    -321.996    -551.693
  H      342.422    -322.613    -553.317
  H      340.932    -322.892    -552.448

 3  4  5  6  7  8  9  10  11  12  22  25  29  30  31  32 0
 6-311+G(2d,p)
 ****
 33  36  37 0
 6-311+G(2d,p)
 ****
 1  2  13  14  15  16  17  18  19  20  21  23  24  26 0
 3-21G
 ****
 27  28  34  35  38  39  40  41  42  43  44  45  46  47  48 0
 3-21G
 ****


