%nproc=1
%NoSave
%Mem=1900MB
#P OB98/GEN NMR

erre ene a

0 1
  C       11.594     807.591     -56.024
  O       10.224     807.843     -55.791
  H       11.690     806.620     -56.516
  H       12.141     807.552     -55.076
  H       12.020     808.356     -56.671
  P        9.791     809.187     -55.034
  C        7.884     809.463     -56.736
  O        9.029     810.074     -56.146
  C        6.747     810.471     -56.897
  O        6.304     810.921     -55.592
  C        7.138     811.725     -57.702
  O        6.128     812.010     -58.676
  C        7.162     812.827     -56.657
  O        6.959     814.124     -57.206
  C        6.086     812.338     -55.694
  N        6.146     813.015     -54.405
  C        5.122     813.929     -54.131
  O        4.224     814.120     -54.963
  N        5.163     814.639     -52.963
  C        6.169     814.490     -52.148
  N        6.155     815.248     -51.023
  C        7.277     813.555     -52.400
  C        7.199     812.851     -53.539
  O       10.897     809.888     -54.319
  O        8.595     808.743     -54.063
  H        7.067     814.791     -56.486
  H        8.515     809.404     -53.335
  H        8.098     813.465     -51.709
  H        7.972     812.135     -53.811
  H        5.073     812.498     -56.119
  H        8.136     812.831     -56.151
  H        8.099     811.626     -58.201
  H        5.889     809.962     -57.346
  H        5.383     815.884     -50.894
  H        7.565     808.627     -56.105
  H        6.894     815.230     -50.330
  H        8.165     809.083     -57.727
  P        6.293     813.393     -59.475
  C        4.949     812.852     -61.632
  O        6.223     813.076     -61.047
  O        7.830     813.788     -59.217
  O        5.355     814.467     -59.001
  H        7.860     814.574     -58.627
  H        5.066     812.655     -62.677
  H        4.338     813.720     -61.499
  H        4.483     812.012     -61.161

 6  7  8  9  10  11  12  13  14  15  16  26  30  31  32  33  35 0
 6-311+G(2d,p)
 ****
 37  38 0
 6-311+G(2d,p)
 ****
 1  2  3  4  5  17  18  19  20  21  22  23  24  25 0
 3-21G
 ****
 27  28  29  34  36  39  40  41  42  43  44  45  46 0
 3-21G
 ****


