%nproc=1
%NoSave
%Mem=1900MB
#P OB98/GEN NMR

erre ene a

0 1
  C       28.579     -16.741      30.936
  O       29.977     -16.932      31.026
  H       28.356     -15.887      30.290
  H       28.130     -17.638      30.501
  H       28.152     -16.580      31.931
  P       30.825     -15.732      31.671
  C       31.750     -13.476      30.780
  O       30.875     -14.572      30.560
  C       31.360     -12.305      29.882
  O       30.114     -11.726      30.328
  C       32.363     -11.153      29.860
  O       33.463     -11.427      29.004
  C       31.495     -10.032      29.313
  O       31.374     -10.165      27.883
  C       30.142     -10.316      29.984
  N       27.922      -6.129      31.919
  C       27.892      -6.675      30.682
  N       28.493      -7.806      30.250
  C       29.169      -8.397      31.249
  C       29.271      -7.971      32.565
  C       28.614      -6.772      32.893
  N       28.706      -6.183      34.145
  N       30.064      -8.832      33.297
  C       30.448      -9.752      32.434
  N       29.923      -9.534      31.187
  O       32.319     -16.317      31.682
  O       30.388     -15.306      33.034
  H       32.214      -9.852      27.500
  H       32.514     -16.682      32.564
  H       27.312      -6.135      29.944
  H       31.099     -10.583      32.664
  H       29.298     -10.133      29.309
  H       31.903      -9.036      29.512
  H       32.694     -10.891      30.872
  H       31.198     -12.695      28.868
  H       32.779     -13.778      30.552
  H       28.614      -5.172      34.126
  H       29.441      -6.565      34.734
  H       31.689     -13.183      31.832
  P       34.911     -10.907      29.461
  C       36.253      -8.709      29.217
  O       35.028      -9.385      28.964
  O       35.897     -11.705      28.482
  O       35.254     -11.150      30.891
  H       36.550     -12.208      29.011
  H       36.195      -7.711      28.836
  H       37.054      -9.229      28.734
  H       36.433      -8.679      30.271

 6  7  8  9  10  11  12  13  14  15  25  28  32  33  34  35 0
 6-311+G(2d,p)
 ****
 36  39  40 0
 6-311+G(2d,p)
 ****
 1  2  3  4  5  16  17  18  19  20  21  22  23  24 0
 3-21G
 ****
 26  27  29  30  31  37  38  41  42  43  44  45  46  47  48 0
 3-21G
 ****


