%nproc=1
%NoSave
%Mem=1900MB
#P OB98/GEN NMR

erre ene a

0 1
  C      104.904      22.298     334.919
  O      104.158      22.476     333.714
  P      103.648      23.968     333.415
  C      103.440      23.513     330.872
  O      102.784      23.922     332.061
  C      103.560      21.988     330.804
  O      102.239      21.368     330.786
  C      104.311      21.483     329.560
  O      105.040      20.317     329.962
  C      103.166      21.110     328.630
  O      103.568      20.277     327.553
  C      102.204      20.494     329.638
  N       99.056      17.476     326.991
  C      100.361      17.356     327.315
  N      101.132      18.210     328.023
  C      100.415      19.278     328.413
  C       99.080      19.541     328.155
  C       98.384      18.578     327.406
  N       97.060      18.701     327.050
  N       98.707      20.760     328.705
  C       99.826      21.244     329.216
  N      100.857      20.352     329.136
  O      104.982      24.744     332.995
  O      102.959      24.606     334.576
  H      104.058      19.506     327.897
  H      105.330      25.258     333.748
  H      100.853      16.456     326.955
  H       99.940      22.226     329.649
  H      102.532      19.500     329.967
  H      102.741      22.022     328.195
  H      105.005      22.213     329.140
  H      104.069      21.641     331.711
  H      104.441      23.952     330.825
  H       96.650      17.958     326.507
  H       96.527      19.513     327.328
  H      102.893      23.908     330.008
  P      106.569      20.159     329.499
  C      107.287      19.196     331.765
  O      107.135      18.945     330.381
  O      107.231      21.419     330.241
  O      106.811      20.119     328.028
  H      106.979      21.445     331.183
  H      107.601      18.273     332.255
  H      106.339      19.525     332.198
  H      108.057      19.960     331.924
  H      105.190      21.271     335.013
  H      104.301      22.579     335.757
  H      105.781      22.911     334.890

 3  4  5  6  7  8  9  10  11  12  22  25  29  30  31  32 0
 6-311+G(2d,p)
 ****
 33  36  37 0
 6-311+G(2d,p)
 ****
 1  2  13  14  15  16  17  18  19  20  21  23  24  26 0
 3-21G
 ****
 27  28  34  35  38  39  40  41  42  43  44  45  46  47  48 0
 3-21G
 ****


