%nproc=1
%NoSave
%Mem=1900MB
#P OB98/GEN NMR

erre ene a

0 1
  C     -394.817     -29.529    -125.080
  O     -396.250     -29.514    -125.152
  P     -397.020     -29.014    -123.830
  C     -398.507     -30.097    -121.993
  O     -397.874     -30.253    -123.257
  C     -398.999     -31.436    -121.434
  O     -400.029     -31.964    -122.303
  C     -397.923     -32.518    -121.307
  O     -398.175     -33.283    -120.118
  C     -398.191     -33.421    -122.494
  O     -397.670     -34.733    -122.305
  C     -399.711     -33.338    -122.569
  N     -402.057     -37.053    -125.095
  C     -401.785     -36.934    -123.743
  N     -402.172     -37.964    -122.960
  N     -401.185     -35.903    -123.205
  C     -400.886     -34.930    -124.109
  C     -401.108     -34.921    -125.465
  C     -401.733     -36.092    -126.049
  O     -401.951     -36.276    -127.246
  N     -400.661     -33.755    -126.042
  C     -400.156     -33.067    -125.035
  N     -400.262     -33.741    -123.841
  O     -398.126     -28.012    -124.411
  O     -396.136     -28.338    -122.838
  H     -398.022     -35.063    -121.456
  H     -398.031     -27.139    -123.989
  H     -402.498     -37.876    -125.460
  H     -399.686     -32.096    -125.114
  H     -400.181     -33.951    -121.787
  H     -397.717     -32.993    -123.390
  H     -402.691     -38.762    -123.296
  H     -396.893     -32.138    -121.286
  H     -402.017     -37.883    -121.960
  H     -399.467     -31.247    -120.455
  H     -399.355     -29.411    -122.091
  H     -397.790     -29.639    -121.302
  P     -397.091     -33.168    -118.941
  C     -395.460     -34.859    -117.822
  O     -396.370     -34.596    -118.874
  O     -397.984     -33.126    -117.615
  O     -396.189     -31.979    -119.062
  H     -397.514     -32.652    -116.906
  H     -395.502     -34.095    -117.040
  H     -394.447     -34.896    -118.228
  H     -395.698     -35.832    -117.381
  H     -394.417     -29.877    -126.010
  H     -394.506     -30.182    -124.291
  H     -394.459     -28.540    -124.885

 3  4  5  6  7  8  9  10  11  12  23  26  30  31  33  0
 6-311+G(2d,p)
 ****
 35  36  37  38 0
 6-311+G(2d,p)
 ****
 1  2  13  14  15  16  17  18  19  20  21  22  24  25  27  28  29 0
 3-21G
 ****
 32  34  39  40  41  42  43  44  45  46  47  48  49 0
 3-21G
 ****


