%nproc=1
%NoSave
%Mem=1900MB
#P OB98/GEN NMR

erre ene a

0 1
  C      414.938     202.125    -313.593
  O      416.245     202.301    -313.031
  P      417.448     201.567    -313.808
  C      419.059     203.587    -313.535
  O      418.831     202.203    -313.281
  C      420.536     203.956    -313.336
  O      420.862     204.084    -311.923
  C      421.514     202.924    -313.924
  O      422.651     203.655    -314.410
  C      421.930     202.115    -312.704
  O      423.138     201.389    -312.935
  C      422.010     203.226    -311.673
  N      424.351     203.609    -307.202
  C      424.670     204.155    -308.421
  N      425.750     204.976    -308.458
  N      424.001     203.942    -309.531
  C      422.919     203.129    -309.342
  C      422.481     202.537    -308.173
  C      423.264     202.773    -306.973
  O      423.018     202.311    -305.859
  N      421.328     201.815    -308.380
  C      421.115     201.920    -309.687
  N      422.009     202.757    -310.300
  O      417.312     202.131    -315.304
  O      417.382     200.080    -313.766
  H      423.301     200.855    -312.132
  H      416.865     201.478    -315.871
  H      424.916     203.805    -306.396
  H      420.306     201.447    -310.224
  H      422.924     203.840    -311.784
  H      421.135     201.392    -312.438
  H      426.286     205.227    -307.642
  H      421.090     202.301    -314.722
  H      425.981     205.427    -309.338
  H      420.709     204.938    -313.799
  H      418.457     204.197    -312.849
  H      418.720     203.834    -314.542
  P      422.949     203.607    -315.981
  C      423.811     206.057    -316.017
  O      424.093     204.695    -316.279
  O      421.629     204.266    -316.619
  O      423.182     202.237    -316.540
  H      421.394     203.799    -317.444
  H      424.750     206.571    -315.817
  H      423.149     206.174    -315.158
  H      423.341     206.506    -316.900
  H      414.221     202.653    -313.000
  H      414.693     201.084    -313.606
  H      414.925     202.507    -314.592

 3  4  5  6  7  8  9  10  11  12  23  26  30  31 0
 6-311+G(2d,p)
 ****
 33  35  36  37  38 0
 6-311+G(2d,p)
 ****
 1  2  13  14  15  16  17  18  19  20  21  22  24  25 0
 3-21G
 ****
 27  28  29  32  34  39  40  41  42  43  44  45  46  47  48  49 0
 3-21G
 ****


