%nproc=1
%NoSave
%Mem=1900MB
#P OB98/GEN NMR

erre ene a

0 1
  C       50.326     370.419     277.514
  O       51.465     369.622     277.779
  H       50.653     371.358     277.066
  H       49.801     370.637     278.447
  H       49.655     369.905     276.819
  P       51.201     368.126     278.285
  C       52.473     368.703     280.508
  O       51.329     368.133     279.885
  C       52.524     368.294     281.978
  O       51.663     369.129     282.780
  C       52.019     366.890     282.246
  O       52.904     365.893     281.784
  C       51.876     366.933     283.762
  O       53.149     366.770     284.407
  C       51.336     368.367     283.975
  N       49.905     368.392     284.254
  C       49.544     368.218     285.593
  O       50.411     368.063     286.456
  N       48.211     368.186     285.920
  C       47.317     368.343     284.991
  N       46.013     368.294     285.375
  C       47.654     368.556     283.568
  C       48.955     368.565     283.274
  O       52.531     367.363     277.827
  O       49.935     367.502     277.796
  H       53.730     367.465     284.042
  H       53.350     367.787     278.138
  H       46.876     368.691     282.830
  H       49.289     368.713     282.257
  H       51.855     368.854     284.811
  H       51.226     366.140     284.137
  H       51.019     366.758     281.816
  H       53.556     368.427     282.333
  H       45.818     368.126     286.350
  H       52.470     369.792     280.406
  H       45.234     368.374     284.736
  H       53.357     368.325     279.983
  P       52.416     364.374     281.634
  C       52.991     363.713     284.055
  O       51.953     363.906     283.099
  O       53.380     363.458     280.964
  O       51.009     364.513     280.867
  H       50.344     365.045     281.338
  H       52.565     363.404     284.987
  H       53.524     364.631     284.193
  H       53.664     362.959     283.703

 6  7  8  9  10  11  12  13  14  15  16  26  30  31  32  33  35 0
 6-311+G(2d,p)
 ****
 37  38 0
 6-311+G(2d,p)
 ****
 1  2  3  4  5  17  18  19  20  21  22  23  24  25 0
 3-21G
 ****
 27  28  29  34  36  39  40  41  42  43  44  45  46 0
 3-21G
 ****


