%nproc=1
%NoSave
%Mem=1900MB
#P OB98/GEN NMR

erre ene a

0 1
  C      -54.591    -262.635     -58.483
  O      -53.817    -261.586     -57.930
  H      -55.644    -262.339     -58.469
  H      -54.478    -263.550     -57.895
  H      -54.294    -262.821     -59.519
  P      -52.241    -261.807     -57.765
  C      -52.439    -262.302     -55.231
  O      -52.050    -262.790     -56.511
  C      -51.339    -262.562     -54.201
  O      -51.662    -261.919     -52.952
  C      -51.135    -264.036     -53.871
  O      -50.443    -264.689     -54.917
  C      -50.373    -263.924     -52.559
  O      -48.991    -263.606     -52.788
  C      -51.103    -262.732     -51.888
  N      -52.142    -263.138     -50.946
  C      -51.712    -263.904     -49.853
  O      -50.525    -264.210     -49.736
  N      -52.652    -264.313     -48.936
  C      -53.890    -263.959     -49.069
  N      -54.766    -264.394     -48.124
  C      -54.376    -263.122     -50.183
  C      -53.459    -262.761     -51.081
  O      -51.401    -260.566     -57.711
  O      -51.846    -262.731     -59.011
  H      -48.634    -263.305     -51.929
  H      -51.541    -262.184     -59.760
  H      -55.419    -262.840     -50.251
  H      -53.730    -262.147     -51.936
  H      -50.386    -262.095     -51.349
  H      -50.399    -264.851     -51.981
  H      -52.097    -264.519     -53.670
  H      -50.411    -262.110     -54.575
  H      -54.384    -264.951     -47.366
  H      -53.354    -262.830     -54.947
  H      -55.712    -264.050     -48.035
  H      -52.662    -261.228     -55.279
  P      -50.898    -266.134     -55.446
  C      -49.430    -267.453     -53.795
  O      -50.754    -267.125     -54.189
  O      -50.217    -266.597     -56.691
  O      -52.485    -265.998     -55.598
  H      -52.714    -265.500     -56.421
  H      -49.462    -268.114     -52.954
  H      -48.906    -266.559     -53.527
  H      -48.925    -267.933     -54.607

 6  7  8  9  10  11  12  13  14  15  16  26  30  31  32  33  35 0
 6-311+G(2d,p)
 ****
 37  38 0
 6-311+G(2d,p)
 ****
 1  2  3  4  5  17  18  19  20  21  22  23  24  25 0
 3-21G
 ****
 27  28  29  34  36  39  40  41  42  43  44  45  46 0
 3-21G
 ****


