%nproc=1
%NoSave
%Mem=1900MB
#P OB98/GEN NMR

erre ene a

0 1
  C      150.426     205.273     416.782
  O      150.624     205.598     418.163
  P      150.998     204.488     419.256
  C      152.829     205.187     420.937
  O      151.441     205.228     420.615
  C      153.220     206.314     421.891
  O      153.270     207.580     421.206
  C      152.265     206.513     423.064
  O      152.490     205.540     424.064
  C      152.582     207.944     423.482
  O      153.763     207.984     424.298
  C      152.852     208.614     422.122
  N      149.999     212.839     422.512
  C      151.113     212.440     423.162
  N      151.811     211.298     422.999
  C      151.263     210.531     422.038
  C      150.125     210.810     421.298
  C      149.475     212.029     421.567
  N      148.330     212.423     420.915
  N      149.849     209.776     420.424
  C      150.823     208.905     420.623
  N      151.701     209.313     421.586
  O      151.976     203.459     418.776
  O      149.605     203.803     419.645
  H      154.485     207.564     423.797
  H      149.757     202.884     419.929
  H      151.493     213.132     423.910
  H      150.930     207.964     420.089
  H      153.675     209.328     422.179
  H      151.775     208.416     424.046
  H      151.224     206.458     422.717
  H      154.237     206.102     422.263
  H      153.402     205.281     420.004
  H      147.904     213.295     421.189
  H      147.908     211.801     420.241
  H      153.058     204.214     421.387
  P      151.798     204.097     423.967
  C      153.899     202.720     424.481
  O      152.618     203.106     424.923
  O      151.570     203.586     422.578
  O      150.412     204.283     424.746
  H      149.746     203.680     424.368
  H      153.801     201.915     423.744
  H      154.472     202.347     425.341
  H      154.434     203.560     424.036
  H      150.186     206.162     416.237
  H      149.623     204.572     416.692
  H      151.321     204.842     416.385

 3  4  5  6  7  8  9  10  11  12  22  25  29  30  31  32 0
 6-311+G(2d,p)
 ****
 33  36  37 0
 6-311+G(2d,p)
 ****
 1  2  13  14  15  16  17  18  19  20  21  23  24  26 0
 3-21G
 ****
 27  28  34  35  38  39  40  41  42  43  44  45  46  47  48 0
 3-21G
 ****


