%nproc=1
%NoSave
%Mem=1900MB
#P OB98/GEN NMR

erre ene a

0 1
  C       22.432    -241.122    -278.143
  O       21.069    -241.382    -278.411
  H       22.545    -240.707    -277.138
  H       22.988    -242.061    -278.202
  H       22.836    -240.425    -278.883
  P       20.080    -240.119    -278.352
  C       18.769    -238.871    -276.503
  O       19.613    -239.968    -276.821
  C       18.543    -238.806    -274.994
  O       17.689    -239.918    -274.618
  C       19.832    -238.889    -274.162
  O       19.876    -237.834    -273.193
  C       19.716    -240.213    -273.428
  O       20.290    -240.180    -272.127
  C       18.210    -240.440    -273.388
  N       17.037    -244.076    -270.013
  C       16.949    -242.732    -269.941
  N       17.185    -241.822    -270.908
  C       17.514    -242.431    -272.063
  C       17.623    -243.792    -272.293
  C       17.386    -244.637    -271.195
  N       17.529    -246.004    -271.253
  N       17.991    -244.041    -273.603
  C       18.146    -242.846    -274.139
  N       17.885    -241.844    -273.243
  O       18.764    -240.650    -279.099
  O       20.613    -238.884    -278.994
  H       20.023    -240.999    -271.671
  H       18.605    -240.096    -279.887
  H       16.655    -242.329    -268.975
  H       18.490    -242.651    -275.148
  H       17.737    -239.892    -272.565
  H       20.221    -240.991    -274.013
  H       20.734    -238.853    -274.779
  H       17.994    -237.885    -274.761
  H       17.802    -238.994    -277.003
  H       17.454    -246.522    -270.391
  H       17.897    -246.415    -272.100
  H       19.234    -237.946    -276.860
  P       21.241    -236.982    -273.134
  C       23.625    -237.377    -272.180
  O       22.248    -237.726    -272.126
  O       20.810    -235.657    -272.347
  O       21.806    -236.658    -274.476
  H       21.016    -234.870    -272.883
  H       24.167    -237.950    -271.457
  H       23.737    -236.335    -271.966
  H       24.007    -237.584    -273.158

 6  7  8  9  10  11  12  13  14  15  25  28  32  33  34  35 0
 6-311+G(2d,p)
 ****
 36  39  40 0
 6-311+G(2d,p)
 ****
 1  2  3  4  5  16  17  18  19  20  21  22  23  24 0
 3-21G
 ****
 26  27  29  30  31  37  38  41  42  43  44  45  46  47  48 0
 3-21G
 ****


