%nproc=1
%NoSave
%Mem=1900MB
#P OB98/GEN NMR

erre ene a

0 1
  C       55.516     208.044    -184.583
  O       55.424     208.457    -183.234
  H       56.169     207.171    -184.640
  H       55.949     208.848    -185.184
  H       54.531     207.773    -184.976
  P       54.265     209.509    -182.876
  C       53.791     211.985    -183.494
  O       54.736     210.925    -183.471
  C       54.293     213.119    -184.381
  O       54.633     212.623    -185.692
  C       53.281     214.241    -184.599
  O       53.294     215.173    -183.524
  C       53.827     214.870    -185.871
  O       54.974     215.688    -185.556
  C       54.268     213.637    -186.670
  N       52.863     212.973    -191.500
  C       53.954     213.642    -190.978
  N       54.785     214.223    -191.871
  N       54.208     213.737    -189.698
  C       53.278     213.128    -188.923
  C       52.153     212.442    -189.322
  C       51.895     212.331    -190.738
  O       50.947     211.741    -191.252
  N       51.449     211.962    -188.249
  C       52.135     212.378    -187.202
  N       53.253     213.093    -187.557
  O       54.430     209.687    -181.291
  O       52.882     209.078    -183.233
  H       55.322     216.030    -186.399
  H       53.735     209.170    -180.843
  H       52.710     212.939    -192.491
  H       51.872     212.183    -186.171
  H       55.152     213.835    -187.284
  H       53.100     215.519    -186.365
  H       54.637     214.208    -192.867
  H       52.273     213.850    -184.784
  H       55.594     214.716    -191.510
  H       55.215     213.514    -183.933
  H       53.646     212.356    -182.474
  H       52.838     211.605    -183.876
  P       51.889     215.642    -182.909
  C       50.140     217.474    -183.467
  O       51.432     216.946    -183.730
  O       52.310     216.228    -181.480
  O       50.863     214.571    -182.777
  H       51.969     215.649    -180.770
  H       49.974     218.334    -184.082
  H       50.072     217.754    -182.436
  H       49.400     216.732    -183.685

 6  7  8  9  10  11  12  13  14  15  26  29  33  34 0
 6-311+G(2d,p)
 ****
 36  38  39  40  41 0
 6-311+G(2d,p)
 ****
 1  2  3  4  5  16  17  18  19  20  21  22  23  24  25 0
 3-21G
 ****
 27  28  30  31  32  35  37  42  43  44  45  46  47 0
 3-21G
 ****
 48  49 0
 3-21G
 ****


