%nproc=1
%NoSave
%Mem=1900MB
#P OB98/GEN NMR

erre ene a

0 1
  C      209.512    -300.638    -295.336
  O      208.680    -300.197    -296.417
  P      209.376    -299.359    -297.592
  C      209.396    -296.881    -298.367
  O      209.158    -297.794    -297.306
  C      208.214    -295.908    -298.548
  O      206.989    -296.640    -298.829
  C      207.941    -295.041    -297.317
  O      207.396    -293.792    -297.759
  C      206.855    -295.820    -296.598
  O      206.147    -294.999    -295.669
  C      206.041    -296.313    -297.792
  N      201.335    -298.140    -297.818
  C      201.812    -296.899    -298.192
  N      200.901    -296.027    -298.681
  N      203.071    -296.544    -298.104
  C      203.867    -297.534    -297.632
  C      203.517    -298.798    -297.219
  C      202.120    -299.169    -297.304
  O      201.640    -300.250    -296.968
  N      204.610    -299.506    -296.779
  C      205.617    -298.661    -296.916
  N      205.224    -297.470    -297.468
  O      208.417    -299.643    -298.851
  O      210.780    -299.772    -297.885
  H      206.807    -294.673    -295.013
  H      208.869    -300.233    -299.483
  H      200.357    -298.354    -297.902
  H      206.639    -298.864    -296.640
  H      205.360    -295.546    -298.179
  H      207.299    -296.661    -296.051
  H      199.931    -296.255    -298.832
  H      208.817    -294.851    -296.686
  H      201.232    -295.127    -299.005
  H      208.422    -295.272    -299.413
  H      209.568    -297.420    -299.299
  H      210.327    -296.340    -298.166
  P      208.361    -292.518    -297.695
  C      208.715    -290.609    -295.965
  O      208.177    -291.890    -296.233
  O      207.643    -291.453    -298.650
  O      209.771    -292.777    -298.107
  H      208.294    -290.817    -299.003
  H      207.906    -289.869    -295.965
  H      209.466    -290.316    -296.709
  H      209.186    -290.616    -294.984
  H      208.920    -301.181    -294.629
  H      209.952    -299.789    -294.856
  H      210.285    -301.273    -295.717

 3  4  5  6  7  8  9  10  11  12  23  26  30  31 0
 6-311+G(2d,p)
 ****
 33  35  36  37  38 0
 6-311+G(2d,p)
 ****
 1  2  13  14  15  16  17  18  19  20  21  22  24  25 0
 3-21G
 ****
 27  28  29  32  34  39  40  41  42  43  44  45  46  47  48  49 0
 3-21G
 ****


