%nproc=1
%NoSave
%Mem=1900MB
#P OB98/GEN NMR

erre ene a

0 1
  C      191.611      41.545     -47.030
  O      191.064      42.702     -47.626
  H      191.539      40.717     -47.744
  H      191.046      41.278     -46.132
  H      192.663      41.696     -46.775
  P      191.194      44.103     -46.854
  C      191.133      44.766     -44.362
  O      190.667      43.863     -45.359
  C      190.038      45.011     -43.327
  O      188.886      45.615     -43.959
  C      189.517      43.740     -42.669
  O      190.430      43.239     -41.709
  C      188.192      44.228     -42.108
  O      188.379      44.908     -40.860
  C      187.722      45.214     -43.201
  N      186.703      44.625     -44.069
  C      185.486      44.318     -43.467
  O      185.245      44.526     -42.279
  N      184.563      43.697     -44.269
  C      184.790      43.241     -45.537
  O      184.028      42.477     -46.126
  C      186.069      43.648     -46.143
  C      186.957      44.301     -45.388
  O      190.608      45.284     -47.554
  O      192.775      44.273     -46.649
  H      193.117      44.906     -47.310
  H      187.584      45.468     -40.738
  H      183.693      43.432     -43.826
  H      186.256      43.369     -47.174
  H      187.923      44.582     -45.802
  H      187.311      46.124     -42.747
  H      187.500      43.402     -41.938
  H      189.319      42.978     -43.434
  H      190.422      45.714     -42.575
  H      191.400      45.717     -44.845
  H      192.027      44.344     -43.889
  P      190.758      41.673     -41.643
  C      189.571      39.505     -40.930
  O      189.525      40.928     -40.937
  O      192.100      41.326     -41.087
  O      190.634      41.188     -43.167
  H      191.433      40.675     -43.401
  H      188.702      39.122     -40.436
  H      190.449      39.179     -40.412
  H      189.597      39.144     -41.937

 6  7  8  9  10  11  12  13  14  15  16  27  31  32  33  34  35 0
 6-311+G(2d,p)
 ****
 36  37 0
 6-311+G(2d,p)
 ****
 1  2  3  4  5  17  18  19  20  21  22  23  24  25 0
 3-21G
 ****
 26  28  29  30  38  39  40  41  42  43  44  45 0
 3-21G
 ****


