%nproc=1
%NoSave
%Mem=1900MB
#P OB98/GEN NMR

erre ene a

0 1
  C      275.769     317.815    -276.651
  O      275.038     317.548    -275.454
  P      275.297     316.313    -274.475
  C      275.592     317.962    -272.445
  O      276.080     316.847    -273.188
  C      276.295     318.069    -271.084
  O      275.895     316.934    -270.258
  C      277.828     318.020    -271.205
  O      278.503     318.948    -270.370
  C      278.136     316.545    -270.997
  O      279.480     316.293    -270.627
  C      277.074     316.143    -269.977
  N      278.833     311.353    -269.824
  C      279.530     312.536    -269.917
  N      280.873     312.444    -270.004
  N      278.959     313.711    -269.943
  C      277.610     313.665    -269.940
  C      276.801     312.550    -269.860
  C      277.442     311.254    -269.777
  O      276.873     310.170    -269.669
  N      275.480     312.889    -269.859
  C      275.478     314.213    -269.958
  N      276.760     314.723    -270.003
  O      275.826     315.068    -275.116
  O      273.833     315.973    -273.894
  H      279.520     315.408    -270.219
  H      273.813     315.009    -273.737
  H      279.326     310.471    -269.778
  H      274.596     314.840    -269.986
  H      277.382     316.361    -268.955
  H      277.959     316.029    -271.948
  H      281.368     311.570    -270.106
  H      278.147     318.309    -272.217
  H      281.353     313.292    -270.297
  H      275.965     318.987    -270.582
  H      274.527     317.784    -272.297
  H      275.696     318.884    -273.020
  P      278.924     320.456    -270.681
  C      277.616     321.342    -268.650
  O      277.810     321.433    -270.057
  O      278.707     320.628    -272.259
  O      280.328     320.806    -270.312
  H      279.553     320.841    -272.681
  H      276.677     321.846    -268.401
  H      278.438     321.838    -268.137
  H      277.553     320.300    -268.344
  H      275.388     318.703    -277.111
  H      275.663     316.991    -277.325
  H      276.803     317.952    -276.414

 3  4  5  6  7  8  9  10  11  12  23  26  30  31 0
 6-311+G(2d,p)
 ****
 33  35  36  37  38 0
 6-311+G(2d,p)
 ****
 1  2  13  14  15  16  17  18  19  20  21  22  24  25 0
 3-21G
 ****
 27  28  29  32  34  39  40  41  42  43  44  45  46  47  48  49 0
 3-21G
 ****


