%nproc=1
%NoSave
%Mem=1900MB
#P OB98/GEN NMR

erre ene a

0 1
  C     -197.827     188.606     271.299
  O     -196.527     189.023     271.672
  P     -195.720     188.148     272.747
  C     -197.386     188.942     274.623
  O     -196.044     188.777     274.190
  C     -197.523     190.228     275.442
  O     -198.924     190.420     275.786
  C     -196.723     190.233     276.756
  O     -196.268     191.579     276.972
  C     -197.774     189.857     277.789
  O     -197.421     190.260     279.104
  C     -199.006     190.565     277.218
  N     -200.271     190.026     277.718
  C     -200.683     190.400     278.995
  O     -200.030     191.144     279.737
  N     -201.874     189.870     279.418
  C     -202.639     188.967     278.741
  O     -203.693     188.511     279.174
  C     -202.135     188.569     277.417
  C     -200.998     189.119     276.972
  O     -194.217     188.608     272.453
  O     -195.964     186.682     272.634
  H     -194.148     189.550     272.209
  H     -198.160     190.033     279.699
  H     -202.208     190.158     280.327
  H     -202.708     187.844     276.847
  H     -200.606     188.838     276.000
  H     -198.953     191.643     277.438
  H     -197.904     188.766     277.792
  H     -195.870     189.553     276.733
  H     -197.223     191.077     274.810
  H     -197.673     188.090     275.245
  H     -198.048     188.962     273.750
  P     -194.714     191.805     277.325
  C     -195.070     192.675     279.772
  O     -194.639     192.937     278.452
  O     -194.235     192.583     276.001
  O     -193.936     190.554     277.574
  H     -194.827     193.316     275.758
  H     -194.638     193.424     280.443
  H     -194.757     191.682     280.108
  H     -196.160     192.749     279.819
  H     -198.228     189.289     270.580
  H     -198.457     188.587     272.163
  H     -197.778     187.626     270.872

 3  4  5  6  7  8  9  10  11  12  13  24  28  29  30  31  32 0
 6-311+G(2d,p)
 ****
 33  34 0
 6-311+G(2d,p)
 ****
 1  2  14  15  16  17  18  19  20  21  22  23  25  26  27 0
 3-21G
 ****
 35  36  37  38  39  40  41  42  43  44  45 0
 3-21G
 ****


