%nproc=1
%NoSave
%Mem=1900MB
#P OB98/GEN NMR

erre ene a

0 1
  C      341.887     634.097    -134.943
  O      341.225     632.951    -134.452
  P      342.082     631.908    -133.581
  C      344.332     630.734    -134.259
  O      343.020     631.141    -134.621
  C      345.002     629.999    -135.418
  O      345.314     630.930    -136.463
  C      346.327     629.311    -135.062
  O      346.111     628.091    -134.356
  C      346.951     629.148    -136.444
  O      346.386     627.998    -137.110
  C      346.501     630.444    -137.152
  N      347.552     631.470    -137.193
  C      348.673     631.163    -137.946
  O      348.822     630.093    -138.547
  N      349.657     632.120    -137.965
  C      349.647     633.300    -137.272
  O      350.585     634.096    -137.293
  C      348.443     633.560    -136.475
  C      347.468     632.640    -136.475
  O      340.941     630.841    -133.192
  O      342.771     632.545    -132.423
  H      340.225     630.824    -133.852
  H      346.505     627.241    -136.477
  H      350.485     631.924    -138.525
  H      348.396     634.464    -135.901
  H      346.568     632.803    -135.879
  H      346.188     630.222    -138.180
  H      348.033     629.008    -136.396
  H      346.943     629.988    -134.467
  H      344.281     629.260    -135.812
  H      344.262     630.055    -133.381
  H      344.919     631.603    -133.965
  P      347.338     627.589    -133.427
  C      349.835     627.157    -134.036
  O      348.486     627.097    -134.422
  O      346.715     626.234    -132.823
  O      347.757     628.591    -132.391
  H      346.229     625.703    -133.487
  H      350.415     626.469    -134.657
  H      349.969     626.865    -132.977
  H      350.215     628.173    -134.166
  H      341.197     634.696    -135.500
  H      342.694     633.798    -135.578
  H      342.271     634.666    -134.122

 3  4  5  6  7  8  9  10  11  12  13  24  28  29  30  31  32 0
 6-311+G(2d,p)
 ****
 33  34 0
 6-311+G(2d,p)
 ****
 1  2  14  15  16  17  18  19  20  21  22  23  25  26  27 0
 3-21G
 ****
 35  36  37  38  39  40  41  42  43  44  45 0
 3-21G
 ****


