%nproc=1
%NoSave
%Mem=1900MB
#P OB98/GEN NMR

erre ene a

0 1
  C     -772.530    -644.278    2422.479
  O     -773.783    -643.836    2421.958
  H     -771.742    -643.987    2421.788
  H     -772.535    -645.367    2422.569
  H     -772.343    -643.830    2423.464
  P     -775.081    -644.097    2422.876
  C     -775.984    -641.692    2423.230
  O     -775.256    -642.773    2423.770
  C     -775.052    -640.606    2422.700
  O     -774.340    -641.118    2421.523
  C     -775.741    -639.293    2422.279
  O     -774.866    -638.198    2422.619
  C     -775.812    -639.414    2420.772
  O     -775.961    -638.147    2420.122
  C     -774.485    -640.110    2420.474
  N     -773.402    -639.191    2415.661
  C     -773.282    -638.402    2416.764
  N     -772.785    -637.155    2416.572
  N     -773.594    -638.763    2417.994
  C     -774.040    -640.061    2418.038
  C     -774.212    -640.953    2417.038
  C     -773.900    -640.493    2415.660
  O     -773.992    -641.162    2414.646
  N     -774.715    -642.119    2417.469
  C     -774.845    -641.975    2418.788
  N     -774.460    -640.704    2419.164
  O     -774.551    -645.208    2423.917
  O     -776.289    -644.542    2422.143
  H     -776.870    -637.836    2420.257
  H     -774.767    -646.096    2423.599
  H     -773.144    -638.859    2414.739
  H     -775.218    -642.701    2419.470
  H     -773.633    -639.426    2420.547
  H     -776.684    -640.038    2420.481
  H     -772.471    -636.807    2415.698
  H     -776.714    -639.121    2422.755
  H     -772.642    -636.576    2417.384
  H     -774.271    -640.407    2423.479
  H     -776.635    -641.256    2424.005
  H     -776.645    -642.056    2422.393
  P     -774.613    -637.884    2424.162
  C     -772.028    -637.881    2424.690
  O     -773.261    -638.621    2424.620
  O     -775.736    -638.737    2424.899
  O     -774.678    -636.423    2424.498
  H     -776.006    -638.308    2425.760
  H     -771.240    -638.530    2425.011
  H     -772.134    -637.077    2425.388
  H     -771.794    -637.486    2423.723

 6  7  8  9  10  11  12  13  14  15  26  29  33  34 0
 6-311+G(2d,p)
 ****
 36  38  39  40  41 0
 6-311+G(2d,p)
 ****
 1  2  3  4  5  16  17  18  19  20  21  22  23  24  25 0
 3-21G
 ****
 27  28  30  31  32  35  37  42  43  44  45  46  47 0
 3-21G
 ****
 48  49 0
 3-21G
 ****


