%nproc=1
%NoSave
%Mem=1900MB
#P OB98/GEN NMR

erre ene a

0 1
  C      -83.498     565.651      63.391
  O      -82.850     564.449      62.967
  P      -81.283     564.337      63.285
  C      -80.917     562.796      65.341
  O      -81.008     562.891      63.928
  C      -80.936     561.332      65.787
  O      -82.233     560.723      65.611
  C      -79.957     560.451      65.016
  O      -78.645     560.622      65.537
  C      -80.524     559.062      65.273
  O      -80.074     558.530      66.538
  C      -82.040     559.315      65.311
  N      -82.858     555.739      61.811
  C      -81.949     555.771      62.848
  N      -81.160     554.683      62.990
  N      -81.822     556.776      63.677
  C      -82.675     557.795      63.416
  C      -83.640     557.869      62.434
  C      -83.767     556.747      61.525
  O      -84.572     556.665      60.604
  N      -84.356     559.038      62.522
  C      -83.743     559.716      63.471
  N      -82.757     558.984      64.089
  O      -81.078     565.348      64.508
  O      -80.412     564.695      62.123
  H      -80.391     559.105      67.255
  H      -80.574     566.129      64.210
  H      -82.904     554.940      61.200
  H      -83.982     560.726      63.766
  H      -82.524     558.746      66.114
  H      -80.204     558.349      64.507
  H      -81.204     553.871      62.397
  H      -79.994     560.685      63.949
  H      -80.490     554.682      63.753
  H      -80.693     561.309      66.857
  H      -81.742     563.335      65.808
  H      -79.991     563.287      65.667
  P      -77.429     560.667      64.494
  C      -75.748     561.970      65.982
  O      -76.075     560.752      65.341
  O      -77.568     562.125      63.838
  O      -77.468     559.601      63.447
  H      -77.447     562.059      62.868
  H      -75.161     561.750      66.881
  H      -76.644     562.528      66.273
  H      -75.146     562.581      65.310
  H      -84.534     565.610      63.126
  H      -83.040     566.491      62.912
  H      -83.405     565.751      64.452

 3  4  5  6  7  8  9  10  11  12  23  26  30  31 0
 6-311+G(2d,p)
 ****
 33  35  36  37  38 0
 6-311+G(2d,p)
 ****
 1  2  13  14  15  16  17  18  19  20  21  22  24  25 0
 3-21G
 ****
 27  28  29  32  34  39  40  41  42  43  44  45  46  47  48  49 0
 3-21G
 ****


