%nproc=1
%NoSave
%Mem=1900MB
#P OB98/GEN NMR

erre ene a

0 1
  C     -109.024     157.959     136.232
  O     -109.160     158.471     134.923
  H     -109.851     158.331     136.841
  H     -108.083     158.289     136.679
  H     -109.066     156.866     136.218
  P     -108.004     158.163     133.858
  C     -109.573     157.896     131.821
  O     -108.546     158.660     132.434
  C     -109.487     157.993     130.292
  O     -110.005     159.288     129.874
  C     -108.055     157.877     129.744
  O     -108.145     157.292     128.438
  C     -107.652     159.335     129.651
  O     -106.496     159.502     128.867
  C     -108.955     159.951     129.136
  N     -108.998     161.395     129.304
  C     -108.522     162.156     128.233
  O     -108.087     161.602     127.223
  N     -108.522     163.522     128.345
  C     -108.900     164.079     129.452
  N     -108.862     165.436     129.503
  C     -109.354     163.308     130.629
  C     -109.382     161.984     130.486
  O     -107.462     156.773     133.871
  O     -106.865     159.235     134.205
  H     -105.755     158.957     129.215
  H     -106.129     158.794     134.669
  H     -109.641     163.818     131.537
  H     -109.699     161.334     131.295
  H     -109.104     159.720     128.073
  H     -107.415     159.732     130.643
  H     -107.400     157.279     130.382
  H     -110.142     157.232     129.854
  H     -108.534     165.923     128.677
  H     -110.531     158.296     132.167
  H     -109.112     165.977     130.318
  H     -109.498     156.848     132.127
  P     -108.050     155.712     128.183
  C     -109.991     155.552     126.491
  O     -108.593     155.379     126.714
  O     -108.669     154.884     129.264
  O     -106.481     155.402     128.077
  H     -106.311     154.500     128.406
  H     -110.225     155.298     125.478
  H     -110.258     156.572     126.674
  H     -110.539     154.915     127.154

 6  7  8  9  10  11  12  13  14  15  16  26  30  31  32  33  35 0
 6-311+G(2d,p)
 ****
 37  38 0
 6-311+G(2d,p)
 ****
 1  2  3  4  5  17  18  19  20  21  22  23  24  25 0
 3-21G
 ****
 27  28  29  34  36  39  40  41  42  43  44  45  46 0
 3-21G
 ****


