%nproc=1
%NoSave
%Mem=1900MB
#P OB98/GEN NMR

erre ene a

0 1
  C      392.296    -628.363     573.167
  O      393.464    -627.580     573.429
  P      393.886    -627.350     574.959
  C      393.570    -624.792     574.594
  O      394.375    -625.830     575.128
  C      394.345    -623.469     574.585
  O      394.674    -623.028     575.925
  C      395.676    -623.552     573.836
  O      395.504    -623.401     572.428
  C      396.406    -622.336     574.399
  O      395.949    -621.148     573.743
  C      395.960    -622.345     575.866
  N      400.771    -622.464     577.451
  C      400.140    -621.617     576.546
  N      400.915    -620.663     575.981
  N      398.887    -621.702     576.226
  C      398.225    -622.698     576.875
  C      398.728    -623.603     577.788
  C      400.135    -623.504     578.128
  O      400.743    -624.226     578.914
  N      397.757    -624.460     578.225
  C      396.658    -624.081     577.598
  N      396.904    -623.020     576.741
  O      395.258    -628.188     575.082
  O      392.873    -627.821     575.958
  H      396.177    -621.248     572.787
  H      395.384    -628.492     575.990
  H      401.735    -622.349     577.667
  H      395.689    -624.525     577.714
  H      395.815    -621.337     576.265
  H      397.490    -622.395     574.244
  H      401.886    -620.504     576.229
  H      396.217    -624.477     574.093
  H      400.470    -620.013     575.348
  H      393.720    -622.711     574.102
  H      392.657    -624.681     575.190
  H      393.243    -625.073     573.587
  P      395.416    -624.738     571.537
  C      397.832    -624.513     570.621
  O      396.451    -624.536     570.334
  O      393.972    -624.593     570.844
  O      395.532    -626.010     572.305
  H      393.606    -625.479     570.690
  H      398.392    -624.523     569.682
  H      398.127    -625.369     571.221
  H      398.089    -623.583     571.165
  H      392.141    -628.429     572.110
  H      391.446    -627.900     573.624
  H      392.427    -629.345     573.571

 3  4  5  6  7  8  9  10  11  12  23  26  30  31 0
 6-311+G(2d,p)
 ****
 33  35  36  37  38 0
 6-311+G(2d,p)
 ****
 1  2  13  14  15  16  17  18  19  20  21  22  24  25 0
 3-21G
 ****
 27  28  29  32  34  39  40  41  42  43  44  45  46  47  48  49 0
 3-21G
 ****


