%nproc=1
%NoSave
%Mem=1900MB
#P OB98/GEN NMR

erre ene a

0 1
  C      332.611    -100.925     -11.287
  O      331.645    -101.512     -10.405
  P      330.364    -102.220     -11.056
  C      330.800    -104.665     -10.285
  O      330.742    -103.745     -11.367
  C      330.565    -106.093     -10.791
  O      331.619    -106.525     -11.679
  C      330.504    -107.130      -9.677
  O      329.215    -107.190      -9.083
  C      330.770    -108.408     -10.458
  O      329.561    -108.843     -11.117
  C      331.809    -107.950     -11.490
  N      335.528    -111.379     -11.418
  C      334.256    -111.458     -11.951
  N      333.929    -112.620     -12.557
  N      333.382    -110.485     -11.890
  C      333.854    -109.381     -11.268
  C      335.093    -109.183     -10.698
  C      336.042    -110.269     -10.758
  O      337.181    -110.264     -10.294
  N      335.197    -107.933     -10.155
  C      334.034    -107.361     -10.408
  N      333.178    -108.209     -11.068
  O      330.302    -101.566     -12.520
  O      329.093    -102.003     -10.303
  H      329.336    -108.153     -11.769
  H      329.383    -101.563     -12.842
  H      336.157    -112.159     -11.488
  H      333.766    -106.350     -10.137
  H      331.675    -108.434     -12.464
  H      331.090    -109.233      -9.812
  H      334.566    -113.386     -12.684
  H      331.297    -106.970      -8.939
  H      333.011    -112.684     -12.983
  H      329.615    -106.104     -11.348
  H      330.053    -104.412      -9.529
  H      331.771    -104.571      -9.791
  P      329.122    -107.081      -7.485
  C      328.397    -104.634      -6.993
  O      329.462    -105.557      -7.124
  O      330.415    -107.892      -6.999
  O      327.871    -107.630      -6.892
  H      330.240    -108.316      -6.139
  H      328.793    -103.699      -6.590
  H      327.635    -105.018      -6.310
  H      327.951    -104.437      -7.971
  H      333.403    -100.494     -10.712
  H      332.141    -100.164     -11.874
  H      333.009    -101.679     -11.933

 3  4  5  6  7  8  9  10  11  12  23  26  30  31 0
 6-311+G(2d,p)
 ****
 33  35  36  37  38 0
 6-311+G(2d,p)
 ****
 1  2  13  14  15  16  17  18  19  20  21  22  24  25 0
 3-21G
 ****
 27  28  29  32  34  39  40  41  42  43  44  45  46  47  48  49 0
 3-21G
 ****


