%nproc=1
%NoSave
%Mem=1900MB
#P OB98/GEN NMR

erre ene a

0 1
  C      -58.666    -229.744     100.391
  O      -57.935    -228.601     100.796
  H      -58.051    -230.631     100.560
  H      -58.907    -229.677      99.327
  H      -59.584    -229.832     100.979
  P      -58.662    -227.183     100.603
  C      -59.883    -226.391      98.457
  O      -58.687    -226.906      99.021
  C      -59.849    -226.513      96.935
  O      -59.877    -227.900      96.533
  C      -61.009    -225.830      96.224
  O      -60.767    -224.440      96.064
  C      -61.027    -226.576      94.898
  O      -60.029    -226.068      93.990
  C      -60.691    -228.010      95.336
  N      -64.356    -230.744      93.194
  C      -63.291    -230.079      92.622
  N      -63.221    -230.103      91.271
  N      -62.382    -229.438      93.309
  C      -62.597    -229.473      94.644
  C      -63.605    -230.109      95.332
  C      -64.589    -230.842      94.560
  O      -65.520    -231.501      95.011
  N      -63.476    -229.928      96.684
  C      -62.415    -229.153      96.812
  N      -61.857    -228.836      95.600
  O      -57.577    -226.132     101.142
  O      -59.967    -227.032     101.307
  H      -60.305    -225.194      93.668
  H      -58.042    -225.362     101.520
  H      -65.016    -231.232      92.614
  H      -62.016    -228.797      97.751
  H      -60.094    -228.540      94.582
  H      -61.990    -226.477      94.392
  H      -64.040    -230.278      90.702
  H      -61.953    -226.008      96.757
  H      -62.456    -229.600      90.843
  H      -58.891    -226.096      96.595
  H      -59.983    -225.337      98.733
  H      -60.738    -226.948      98.859
  P      -62.030    -223.450      96.130
  C      -64.311    -223.722      94.906
  O      -62.893    -223.729      94.807
  O      -61.387    -222.011      95.854
  O      -62.788    -223.493      97.414
  H      -62.005    -221.309      96.136
  H      -64.737    -223.923      93.945
  H      -64.640    -222.763      95.248
  H      -64.624    -224.475      95.599

 6  7  8  9  10  11  12  13  14  15  26  29  33  34 0
 6-311+G(2d,p)
 ****
 36  38  39  40  41 0
 6-311+G(2d,p)
 ****
 1  2  3  4  5  16  17  18  19  20  21  22  23  24  25 0
 3-21G
 ****
 27  28  30  31  32  35  37  42  43  44  45  46  47 0
 3-21G
 ****
 48  49 0
 3-21G
 ****


