%nproc=1
%NoSave
%Mem=1900MB
#P OB98/GEN NMR

erre ene a

0 1
  C      -16.708     -28.568      47.567
  O      -15.333     -28.198      47.454
  P      -15.046     -26.730      46.869
  C      -12.606     -26.061      47.437
  O      -13.485     -26.656      46.495
  C      -11.918     -27.126      48.298
  O      -11.034     -27.953      47.483
  C      -11.065     -26.541      49.436
  O      -11.177     -27.448      50.540
  C       -9.668     -26.586      48.840
  O       -8.641     -26.446      49.808
  C       -9.736     -27.925      48.117
  N       -5.451     -30.492      47.088
  C       -6.280     -30.510      48.153
  N       -7.404     -29.790      48.355
  C       -7.645     -28.990      47.302
  C       -6.890     -28.860      46.147
  C       -5.739     -29.662      46.057
  N       -4.876     -29.636      44.986
  N       -7.449     -27.913      45.301
  C       -8.478     -27.438      45.979
  N       -8.682     -28.112      47.148
  O      -15.180     -25.784      48.152
  O      -15.973     -26.333      45.769
  H       -8.722     -25.579      50.255
  H      -16.056     -25.356      48.170
  H       -6.001     -31.191      48.953
  H       -9.104     -26.612      45.668
  H       -9.689     -28.773      48.813
  H       -9.555     -25.764      48.122
  H      -11.383     -25.545      49.756
  H      -12.691     -27.786      48.713
  H      -13.159     -25.378      48.088
  H       -4.074     -30.245      45.015
  H       -5.049     -29.023      44.204
  H      -11.872     -25.448      46.903
  P      -11.506     -26.855      51.996
  C      -12.770     -28.745      53.183
  O      -11.512     -28.140      52.960
  O      -13.077     -26.571      51.848
  O      -10.707     -25.674      52.426
  H      -13.544     -27.347      51.491
  H      -12.622     -29.647      53.785
  H      -13.231     -29.025      52.233
  H      -13.423     -28.059      53.730
  H      -16.779     -29.559      47.965
  H      -17.166     -28.538      46.600
  H      -17.209     -27.884      48.220

 3  4  5  6  7  8  9  10  11  12  22  25  29  30  31  32 0
 6-311+G(2d,p)
 ****
 33  36  37 0
 6-311+G(2d,p)
 ****
 1  2  13  14  15  16  17  18  19  20  21  23  24  26 0
 3-21G
 ****
 27  28  34  35  38  39  40  41  42  43  44  45  46  47  48 0
 3-21G
 ****


