%nproc=1
%NoSave
%Mem=1900MB
#P OB98/GEN NMR

erre ene a

0 1
  C       97.444      85.727     132.905
  O       96.302      86.572     132.888
  P       95.126      86.204     131.856
  C       94.405      84.667     133.817
  O       94.479      84.844     132.407
  C       92.972      84.384     134.246
  O       92.122      85.481     133.861
  C       92.353      83.149     133.611
  O       92.751      81.957     134.271
  C       90.871      83.421     133.820
  O       90.492      83.045     135.157
  C       90.790      84.948     133.651
  N       86.748      86.185     130.865
  C       86.829      85.825     132.196
  N       85.670      85.820     132.889
  N       87.945      85.498     132.791
  C       89.028      85.586     131.986
  C       89.075      85.928     130.652
  C       87.826      86.239     129.991
  O       87.685      86.501     128.801
  N       90.363      85.920     130.181
  C       91.095      85.611     131.231
  N       90.329      85.369     132.343
  O       95.925      85.731     130.552
  O       94.178      87.313     131.555
  H       90.592      82.075     135.220
  H       95.371      85.861     129.758
  H       85.866      86.444     130.461
  H       92.175      85.552     131.230
  H       90.142      85.399     134.411
  H       90.231      82.856     133.136
  H       84.806      86.187     132.522
  H       92.570      83.105     132.538
  H       85.715      85.595     133.874
  H       92.951      84.307     135.340
  H       94.752      85.579     134.314
  H       95.064      83.841     134.105
  P       92.564      80.586     133.454
  C       94.933      79.554     133.728
  O       94.021      80.234     132.887
  O       91.743      81.040     132.160
  O       91.871      79.506     134.215
  H       91.229      80.288     131.805
  H       94.424      78.824     134.364
  H       95.459      80.279     134.354
  H       95.660      79.028     133.105
  H       98.142      86.085     133.632
  H       97.903      85.729     131.939
  H       97.147      84.730     133.157

 3  4  5  6  7  8  9  10  11  12  23  26  30  31  33  0
 6-311+G(2d,p)
 ****
 35  36  37  38 0
 6-311+G(2d,p)
 ****
 1  2  13  14  15  16  17  18  19  20  21  22  24  25  27  28  29 0
 3-21G
 ****
 32  34  39  40  41  42  43  44  45  46  47  48  49 0
 3-21G
 ****


