%nproc=1
%NoSave
%Mem=1900MB
#P OB98/GEN NMR

erre ene a

0 1
  C       72.574      89.901     -50.985
  O       71.589      90.886     -50.667
  P       70.915      91.735     -51.844
  C       69.732      90.656     -53.875
  O       69.701      90.899     -52.473
  C       68.443      89.956     -54.315
  O       68.261      88.697     -53.622
  C       67.191      90.760     -53.990
  O       66.986      91.945     -54.729
  C       66.103      89.703     -54.054
  O       65.670      89.474     -55.394
  C       66.842      88.461     -53.502
  N       66.470      88.149     -52.122
  C       65.174      87.682     -51.929
  O       64.354      87.570     -52.837
  N       64.836      87.379     -50.638
  C       65.637      87.528     -49.543
  O       65.275      87.263     -48.404
  C       66.987      88.049     -49.807
  C       67.337      88.331     -51.064
  O       71.857      92.333     -52.833
  O       70.146      92.897     -51.040
  H       65.489      90.345     -55.795
  H       70.267      93.731     -51.535
  H       63.903      87.031     -50.479
  H       67.648      88.185     -48.962
  H       68.328      88.716     -51.280
  H       66.618      87.579     -54.115
  H       65.219      89.997     -53.478
  H       67.260      91.077     -52.939
  H       68.512      89.736     -55.382
  H       70.600      90.044     -54.126
  H       69.865      91.610     -54.398
  P       67.232      93.410     -54.127
  C       69.383      94.852     -54.250
  O       68.807      93.611     -53.909
  O       66.326      93.861     -53.030
  O       66.963      94.331     -55.418
  H       66.575      95.174     -55.120
  H       70.457      94.804     -54.052
  H       68.951      95.653     -53.645
  H       69.232      95.063     -55.312
  H       72.915      89.434     -50.085
  H       73.400      90.369     -51.479
  H       72.145      89.163     -51.630

 3  4  5  6  7  8  9  10  11  12  13  23  28  29  30  31  32 0
 6-311+G(2d,p)
 ****
 33  34 0
 6-311+G(2d,p)
 ****
 1  2  14  15  16  17  18  19  20  21  22  24  25  26  27 0
 3-21G
 ****
 35  36  37  38  39  40  41  42  43  44  45 0
 3-21G
 ****


