%nproc=1
%NoSave
%Mem=1900MB
#P OB98/GEN NMR

erre ene a

0 1
  C     1161.282    -425.063     435.774
  O     1161.829    -425.232     434.486
  H     1161.771    -425.757     436.465
  H     1160.216    -425.270     435.762
  H     1161.460    -424.040     436.127
  P     1161.182    -424.371     433.300
  C     1158.936    -424.422     431.984
  O     1159.750    -425.034     432.982
  C     1158.246    -425.502     431.158
  O     1157.507    -426.389     432.030
  C     1157.225    -424.961     430.167
  O     1157.825    -424.452     428.986
  C     1156.401    -426.216     429.891
  O     1157.003    -427.030     428.872
  C     1156.404    -426.930     431.252
  N     1155.130    -426.782     431.945
  C     1154.188    -427.773     431.674
  O     1154.389    -428.707     430.912
  N     1152.967    -427.611     432.285
  C     1152.598    -426.566     433.080
  O     1151.473    -426.459     433.559
  C     1153.630    -425.552     433.322
  C     1154.825    -425.692     432.750
  O     1162.080    -424.761     432.035
  O     1161.155    -422.903     433.535
  H     1162.665    -424.017     431.806
  H     1157.091    -426.458     428.081
  H     1152.274    -428.311     432.095
  H     1153.376    -424.705     433.942
  H     1155.610    -424.947     432.895
  H     1156.615    -427.997     431.127
  H     1155.399    -425.968     429.549
  H     1156.579    -424.217     430.643
  H     1159.028    -426.096     430.638
  H     1159.557    -423.803     431.326
  H     1158.199    -423.785     432.493
  P     1156.856    -423.740     427.919
  C     1155.213    -424.666     426.081
  O     1156.166    -424.927     427.099
  O     1157.937    -423.118     426.908
  O     1155.938    -422.735     428.527
  H     1158.784    -423.644     426.909
  H     1154.877    -425.591     425.661
  H     1155.663    -424.069     425.315
  H     1154.380    -424.141     426.499

 6  7  8  9  10  11  12  13  14  15  16  27  31  32  33  34  35 0
 6-311+G(2d,p)
 ****
 36  37 0
 6-311+G(2d,p)
 ****
 1  2  3  4  5  17  18  19  20  21  22  23  24  25 0
 3-21G
 ****
 26  28  29  30  38  39  40  41  42  43  44  45 0
 3-21G
 ****


