%nproc=1
%NoSave
%Mem=1900MB
#P OB98/GEN NMR

erre ene a

0 1
  C       30.668      32.648      27.027
  O       29.965      31.663      26.289
  P       28.501      31.168      26.732
  C       29.604      29.148      27.913
  O       28.736      30.262      28.034
  C       29.771      28.456      29.267
  O       30.292      29.420      30.220
  C       28.472      27.885      29.850
  O       28.813      26.685      30.553
  C       28.032      28.966      30.819
  O       27.151      28.478      31.820
  C       29.388      29.453      31.342
  N       29.317      30.790      31.920
  C       28.639      30.939      33.131
  O       28.100      29.978      33.676
  N       28.585      32.185      33.704
  C       29.087      33.206      33.081
  N       29.060      34.408      33.718
  C       29.715      33.110      31.751
  C       29.814      31.883      31.248
  O       27.709      30.514      25.653
  O       27.815      32.469      27.352
  H       26.352      28.129      31.381
  H       27.390      33.044      26.668
  H       30.094      33.995      31.260
  H       30.282      31.714      30.289
  H       29.782      28.749      32.084
  H       27.513      29.758      30.270
  H       27.729      27.655      29.081
  H       30.522      27.664      29.160
  H       28.781      34.400      34.694
  H       30.581      29.507      27.578
  H       29.699      35.151      33.458
  H       29.214      28.455      27.161
  P       27.621      25.762      31.106
  C       28.008      26.472      33.571
  O       27.108      26.390      32.487
  O       28.424      24.465      31.609
  O       26.578      25.360      30.116
  H       27.826      23.695      31.589
  H       27.491      26.929      34.420
  H       28.867      27.096      33.311
  H       28.347      25.475      33.864
  H       31.616      32.831      26.565
  H       30.820      32.303      28.028
  H       30.099      33.554      27.045

 3  4  5  6  7  8  9  10  11  12  13  23  27  28  29  30  32 0
 6-311+G(2d,p)
 ****
 34  35 0
 6-311+G(2d,p)
 ****
 1  2  14  15  16  17  18  19  20  21  22  24  25  26 0
 3-21G
 ****
 31  33  36  37  38  39  40  41  42  43  44  45  46 0
 3-21G
 ****


