%nproc=1
%NoSave
%Mem=1900MB
#P OB98/GEN NMR

erre ene a

0 1
  C      515.651    -893.650     993.820
  O      514.535    -894.480     994.047
  P      513.182    -894.160     993.209
  C      510.819    -895.310     993.131
  O      512.186    -895.380     993.503
  C      509.924    -895.710     994.320
  O      510.093    -897.120     994.584
  C      510.264    -895.000     995.619
  O      509.768    -893.680     995.658
  C      509.611    -895.960     996.635
  O      508.193    -895.720     996.710
  C      509.894    -897.340     996.009
  N      511.018    -898.050     996.594
  C      510.761    -898.800     997.739
  O      509.631    -898.860     998.237
  N      511.839    -899.450     998.298
  C      513.134    -899.370     997.881
  O      514.046    -899.950     998.445
  C      513.343    -898.540     996.680
  C      512.305    -897.920     996.109
  O      513.696    -894.410     991.722
  O      512.637    -892.790     993.476
  H      514.441    -895.050     991.686
  H      507.830    -896.030     995.865
  H      511.653    -900.000     999.130
  H      514.379    -898.450     996.316
  H      512.463    -897.320     995.222
  H      509.004    -897.980     996.089
  H      510.029    -895.860     997.645
  H      511.349    -895.010     995.794
  H      508.887    -895.540     994.042
  H      510.624    -895.980     992.291
  H      510.583    -894.280     992.813
  P      509.611    -893.000     997.113
  C      509.928    -890.490     997.751
  O      510.409    -891.630     997.035
  O      510.553    -893.960     997.987
  O      508.196    -892.920     997.578
  H      511.394    -894.190     997.548
  H      510.750    -889.790     997.884
  H      509.538    -890.780     998.740
  H      509.133    -890.010     997.182
  H      516.466    -893.972     994.434
  H      515.399    -892.639     994.064
  H      515.935    -893.708     992.790

 3  4  5  6  7  8  9  10  11  12  13  24  28  29  30  31  32 0
 6-311+G(2d,p)
 ****
 33  34 0
 6-311+G(2d,p)
 ****
 1  2  14  15  16  17  18  19  20  21  22  23  25  26  27 0
 3-21G
 ****
 35  36  37  38  39  40  41  42  43  44  45 0
 3-21G
 ****


