%nproc=1
%NoSave
%Mem=1900MB
#P OB98/GEN NMR

erre ene a

0 1
  C      221.127    -143.793    -709.489
  O      220.975    -143.726    -708.082
  H      220.934    -144.819    -709.809
  H      222.143    -143.516    -709.768
  H      220.408    -143.130    -709.977
  P      221.195    -142.283    -707.402
  C      221.257    -143.468    -705.088
  O      221.881    -142.554    -705.980
  C      222.308    -144.119    -704.197
  O      223.111    -145.040    -704.980
  C      223.299    -143.135    -703.592
  O      222.763    -142.444    -702.478
  C      224.453    -144.058    -703.233
  O      224.236    -144.701    -701.974
  C      224.421    -145.090    -704.368
  N      228.770    -146.814    -706.414
  C      227.938    -147.342    -705.490
  N      226.788    -146.818    -705.011
  C      226.511    -145.649    -705.603
  C      227.269    -144.989    -706.561
  C      228.451    -145.620    -706.979
  N      229.307    -145.086    -707.900
  N      226.679    -143.792    -706.901
  C      225.590    -143.722    -706.168
  N      225.443    -144.827    -705.370
  O      219.704    -141.833    -707.029
  O      221.885    -141.277    -708.263
  H      223.319    -145.048    -701.996
  H      219.378    -141.207    -707.703
  H      228.237    -148.296    -705.075
  H      224.874    -142.899    -706.168
  H      224.575    -146.109    -704.007
  H      225.392    -143.504    -703.168
  H      223.639    -142.423    -704.359
  H      221.799    -144.695    -703.408
  H      220.741    -144.247    -705.663
  H      220.514    -142.930    -704.486
  H      230.173    -145.562    -708.100
  H      229.137    -144.144    -708.239
  P      222.992    -140.857    -702.398
  C      222.316    -140.754    -699.882
  O      223.305    -140.495    -700.867
  O      221.531    -140.242    -702.648
  O      223.996    -140.330    -703.371
  H      221.610    -139.408    -703.154
  H      222.683    -140.457    -698.922
  H      222.090    -141.800    -699.869
  H      221.430    -140.201    -700.112

 6  7  8  9  10  11  12  13  14  15  25  28  32  33  34  35 0
 6-311+G(2d,p)
 ****
 36  37  40 0
 6-311+G(2d,p)
 ****
 1  2  3  4  5  16  17  18  19  20  21  22  23  24 0
 3-21G
 ****
 26  27  29  30  31  38  39 41  42  43  44  45  46  47  48 0
 3-21G
 ****


