%nproc=1
%NoSave
%Mem=1900MB
#P OB98/GEN NMR

erre ene a

0 1
  C     -244.658      23.094    -693.726
  O     -245.430      23.573    -692.614
  P     -246.754      22.719    -692.249
  C     -248.427      24.537    -693.093
  O     -247.936      23.206    -693.233
  C     -249.465      24.841    -694.171
  O     -248.882      25.047    -695.472
  C     -250.495      23.721    -694.349
  O     -251.471      23.805    -693.329
  C     -251.052      24.030    -695.733
  O     -252.082      25.039    -695.674
  C     -249.820      24.590    -696.475
  N     -246.477      24.065    -700.276
  C     -247.032      25.205    -699.728
  N     -246.592      26.380    -700.233
  N     -247.901      25.213    -698.747
  C     -248.243      23.964    -698.335
  C     -247.756      22.747    -698.793
  C     -246.788      22.769    -699.872
  O     -246.261      21.786    -700.373
  N     -248.291      21.701    -698.080
  C     -249.179      22.269    -697.291
  N     -249.153      23.645    -697.360
  O     -247.187      23.296    -690.820
  O     -246.523      21.244    -692.216
  H     -252.781      24.753    -695.047
  H     -247.031      22.619    -690.132
  H     -245.822      24.121    -701.031
  H     -249.867      21.743    -696.639
  H     -250.079      25.454    -697.100
  H     -251.504      23.157    -696.198
  H     -245.914      26.466    -700.976
  H     -249.989      22.745    -694.358
  H     -246.969      27.248    -699.824
  H     -249.985      25.783    -693.881
  H     -247.589      25.245    -693.167
  H     -248.840      24.659    -692.092
  P     -251.405      22.729    -692.138
  C     -252.171      20.913    -693.829
  O     -251.257      21.278    -692.813
  O     -252.902      22.742    -691.554
  O     -250.398      23.050    -691.081
  H     -252.863      22.746    -690.587
  H     -251.659      20.203    -694.507
  H     -252.509      21.776    -694.402
  H     -253.034      20.407    -693.381
  H     -243.812      23.732    -693.874
  H     -245.264      23.095    -694.608
  H     -244.323      22.098    -693.525

 3  4  5  6  7  8  9  10  11  12  23  26  30  31 0
 6-311+G(2d,p)
 ****
 33  35  36  37  38 0
 6-311+G(2d,p)
 ****
 1  2  13  14  15  16  17  18  19  20  21  22  24  25 0
 3-21G
 ****
 27  28  29  32  34  39  40  41  42  43  44  45  46  47  48  49 0
 3-21G
 ****


