%nproc=1
%NoSave
%Mem=1900MB
#P OB98/GEN NMR

erre ene a

0 1
  C     -732.555     418.345     757.162
  O     -731.871     418.944     758.221
  P     -730.264     419.117     758.080
  C     -729.733     420.964     759.865
  O     -729.938     420.643     758.484
  C     -728.300     421.417     760.075
  O     -727.925     422.466     759.151
  C     -728.022     422.015     761.479
  O     -727.954     420.997     762.449
  C     -726.716     422.741     761.204
  O     -725.617     421.811     761.219
  C     -726.936     423.284     759.791
  N     -725.938     428.047     758.162
  C     -725.250     426.914     758.035
  N     -725.565     425.684     758.514
  C     -726.735     425.713     759.180
  C     -727.540     426.833     759.412
  C     -727.098     428.023     758.865
  N     -727.795     429.228     758.999
  N     -728.652     426.483     760.154
  C     -728.538     425.207     760.349
  N     -727.403     424.676     759.792
  O     -730.054     419.101     756.495
  O     -729.456     418.077     758.784
  H     -725.702     421.274     762.025
  H     -729.203     418.678     756.252
  H     -724.310     426.949     757.467
  H     -729.221     424.572     760.908
  H     -726.027     423.246     759.168
  H     -726.498     423.518     761.961
  H     -728.817     422.737     761.753
  H     -727.643     420.539     759.914
  H     -729.940     420.079     760.475
  H     -727.346     430.060     758.708
  H     -728.593     429.238     759.628
  H     -730.450     421.760     760.153
  P     -728.562     421.332     763.920
  C     -730.769     420.206     763.245
  O     -730.148     421.384     763.690
  O     -728.155     422.869     764.082
  O     -728.103     420.419     765.012
  H     -728.400     423.400     763.277
  H     -731.845     420.374     763.191
  H     -730.562     419.404     763.948
  H     -730.394     419.914     762.267
  H     -733.599     418.298     757.393
  H     -732.179     417.355     757.009
  H     -732.412     418.923     756.273

 3  4  5  6  7  8  9  10  11  12  22  25  29  30  31  32 0
 6-311+G(2d,p)
 ****
 33  36  37 0
 6-311+G(2d,p)
 ****
 1  2  13  14  15  16  17  18  19  20  21  23  24  26 0
 3-21G
 ****
 27  28  34  35  38  39  40  41  42  43  44  45  46  47  48 0
 3-21G
 ****


