%nproc=1
%NoSave
%Mem=1900MB
#P OB98/GEN NMR

erre ene a

0 1
  C        9.894    -195.731      11.173
  O       10.053    -197.005      10.573
  P        9.144    -198.206      11.134
  C       11.176    -199.387      12.243
  O       10.117    -199.473      11.296
  C       12.236    -200.460      11.990
  O       13.280    -200.332      12.986
  C       11.700    -201.893      12.044
  O       12.388    -202.655      11.052
  C       12.126    -202.376      13.418
  O       12.226    -203.799      13.469
  C       13.454    -201.625      13.603
  N       13.827    -201.500      15.009
  C       14.979    -202.180      15.419
  O       15.582    -202.904      14.626
  N       15.387    -202.062      16.724
  C       14.650    -201.412      17.571
  N       15.098    -201.322      18.852
  C       13.364    -200.787      17.205
  C       13.029    -200.850      15.918
  O        8.242    -198.593       9.871
  O        8.322    -197.856      12.332
  H       12.976    -204.071      12.894
  H        7.363    -198.908      10.154
  H       12.770    -200.288      17.959
  H       12.115    -200.399      15.555
  H       14.266    -202.140      13.071
  H       11.395    -202.054      14.170
  H       10.621    -201.950      11.875
  H       12.694    -200.264      11.013
  H       15.976    -201.772      19.080
  H       10.768    -199.539      13.247
  H       14.592    -200.838      19.580
  H       11.619    -198.387      12.202
  P       11.516    -203.283       9.860
  C       10.947    -205.291      11.356
  O       11.518    -204.863      10.135
  O       12.538    -203.172       8.627
  O       10.205    -202.653       9.534
  H       12.097    -203.470       7.810
  H       10.890    -206.383      11.354
  H        9.941    -204.883      11.473
  H       11.579    -204.975      12.193
  H       10.555    -195.032      10.706
  H       10.123    -195.797      12.216
  H        8.883    -195.403      11.050

 3  4  5  6  7  8  9  10  11  12  13  21  23  27  28  29  30  32 0
 6-311+G(2d,p)
 ****
 34  35 0
 6-311+G(2d,p)
 ****
 1  2  14  15  16  17  18  19  20  22  24  25  26 0
 3-21G
 ****
 31  33  36  37  38  39  40  41  42  43  44  45  46 0
 3-21G
 ****


