%nproc=1
%NoSave
%Mem=1900MB
#P OB98/GEN NMR

erre ene a

0 1
  C      476.209     -49.465      59.804
  O      477.294     -49.342      60.705
  H      475.274     -49.587      60.352
  H      476.146     -48.551      59.203
  H      476.367     -50.317      59.135
  P      477.570     -50.585      61.682
  C      476.321     -49.541      63.713
  O      476.361     -50.581      62.744
  C      474.989     -49.581      64.452
  O      473.897     -49.521      63.509
  C      474.759     -50.848      65.268
  O      475.411     -50.802      66.527
  C      473.246     -50.809      65.434
  O      472.892     -49.849      66.442
  C      472.797     -50.319      64.048
  N      469.045     -52.851      61.656
  C      469.022     -51.831      62.548
  N      470.065     -51.215      63.140
  C      471.231     -51.754      62.731
  C      471.408     -52.797      61.841
  C      470.242     -53.354      61.281
  N      470.261     -54.405      60.388
  N      472.754     -53.097      61.694
  C      473.372     -52.220      62.465
  N      472.492     -51.395      63.120
  O      478.820     -50.104      62.557
  O      477.807     -51.898      61.010
  H      473.102     -50.255      67.304
  H      479.273     -50.877      62.946
  H      468.034     -51.464      62.818
  H      474.441     -52.145      62.578
  H      471.913     -49.669      64.098
  H      472.824     -51.769      65.737
  H      475.035     -51.751      64.705
  H      474.928     -48.688      65.094
  H      476.427     -48.576      63.209
  H      469.373     -54.846      60.195
  H      471.138     -54.883      60.220
  H      477.151     -49.673      64.415
  P      475.730     -52.205      67.241
  C      473.846     -51.921      69.018
  O      474.354     -52.677      67.924
  O      476.633     -51.782      68.495
  O      476.405     -53.214      66.368
  H      477.225     -52.505      68.762
  H      472.931     -52.359      69.360
  H      473.664     -50.915      68.702
  H      474.561     -51.921      69.814

 6  7  8  9  10  11  12  13  14  15  25  28  32  33  34  35 0
 6-311+G(2d,p)
 ****
 36  39  40 0
 6-311+G(2d,p)
 ****
 1  2  3  4  5  16  17  18  19  20  21  22  23  24 0
 3-21G
 ****
 26  27  29  30  31  37  38  41  42  43  44  45  46  47 0
 3-21G
 ****
 48 0
 3-21G
 ****


