%nproc=1
%NoSave
%Mem=1900MB
#P OB98/GEN NMR

erre ene a

0 1
  C      893.031    -686.690      83.376
  O      893.361    -686.584      81.982
  P      893.851    -685.167      81.414
  C      895.805    -684.522      79.818
  O      894.715    -685.410      80.093
  C      896.676    -685.075      78.684
  O      897.547    -686.134      79.141
  C      895.878    -685.678      77.536
  O      895.408    -684.690      76.644
  C      896.919    -686.546      76.861
  O      897.772    -685.732      76.022
  C      897.725    -687.076      78.057
  N      899.009    -692.035      78.314
  C      899.644    -690.961      77.767
  N      899.210    -689.684      77.726
  C      898.041    -689.541      78.346
  C      897.283    -690.536      78.947
  C      897.812    -691.834      78.919
  N      897.169    -692.923      79.475
  N      896.113    -690.014      79.470
  C      896.160    -688.728      79.196
  N      897.302    -688.396      78.510
  O      894.928    -684.688      82.501
  O      892.750    -684.161      81.283
  H      898.505    -686.312      75.721
  H      894.901    -683.728      82.594
  H      900.590    -691.161      77.291
  H      895.429    -688.006      79.469
  H      898.809    -687.145      77.853
  H      896.499    -687.323      76.210
  H      895.052    -686.308      77.915
  H      897.297    -684.258      78.299
  H      896.412    -684.386      80.718
  H      897.626    -693.820      79.453
  H      896.289    -692.774      79.949
  H      895.394    -683.538      79.551
  P      893.828    -684.376      76.637
  C      892.572    -682.129      76.966
  O      893.685    -682.804      76.399
  O      893.411    -684.610      78.161
  O      893.050    -685.245      75.694
  H      892.473    -684.940      78.202
  H      892.796    -681.055      76.991
  H      892.390    -682.486      77.996
  H      891.690    -682.301      76.350
  H      892.724    -687.691      83.595
  H      892.234    -686.015      83.606
  H      893.889    -686.443      83.965

 3  4  5  6  7  8  9  10  11  12  22  25  29  30  31  32 0
 6-311+G(2d,p)
 ****
 33  36  37 0
 6-311+G(2d,p)
 ****
 1  2  13  14  15  16  17  18  19  20  21  23  24  26 0
 3-21G
 ****
 27  28  34  35  38  39  40  41  42  43  44  45  46  47  48 0
 3-21G
 ****


