%nproc=1
%NoSave
%Mem=1900MB
#P OB98/GEN NMR

erre ene a

0 1
  C     1967.863     -50.359    1178.202
  O     1968.422     -51.594    1177.789
  H     1968.396     -49.533    1177.703
  H     1967.999     -50.242    1179.289
  H     1966.797     -50.313    1177.943
  P     1967.848     -52.930    1178.487
  C     1967.191     -54.263    1176.354
  O     1966.740     -53.529    1177.500
  C     1967.209     -55.767    1176.666
  O     1965.812     -56.207    1176.928
  C     1967.684     -56.633    1175.533
  O     1969.106     -56.668    1175.431
  C     1967.108     -57.997    1175.943
  O     1967.961     -58.662    1176.890
  C     1965.751     -57.617    1176.590
  N     1964.627     -57.920    1175.708
  C     1963.895     -59.044    1176.020
  O     1964.192     -59.769    1176.989
  N     1962.888     -59.350    1175.150
  C     1962.545     -58.647    1174.029
  O     1961.652     -59.026    1173.270
  C     1963.348     -57.474    1173.743
  C     1964.376     -57.141    1174.554
  O     1966.981     -52.361    1179.705
  O     1968.883     -53.894    1178.932
  H     1967.474     -52.498    1180.552
  H     1967.471     -59.469    1177.173
  H     1962.337     -60.165    1175.369
  H     1963.138     -56.919    1172.860
  H     1964.967     -56.274    1174.358
  H     1965.606     -58.167    1177.531
  H     1966.992     -58.637    1175.081
  H     1967.234     -56.320    1174.576
  H     1967.780     -55.920    1177.588
  H     1968.222     -53.983    1176.080
  H     1966.540     -54.064    1175.513
  P     1969.757     -56.823    1173.987
  C     1970.792     -54.368    1173.925
  O     1969.863     -55.311    1173.369
  O     1968.528     -57.484    1173.173
  O     1971.041     -57.606    1173.988
  H     1967.659     -57.244    1173.560
  H     1970.719     -53.441    1173.396
  H     1971.787     -54.752    1173.836
  H     1970.563     -54.208    1174.958

 6  7  8  9  10  11  12  13  14  15  16  27  31  32  33  34  35 0
 6-311+G(2d,p)
 ****
 36  37 0
 6-311+G(2d,p)
 ****
 1  2  3  4  5  17  18  19  20  21  22  23  24  25 0
 3-21G
 ****
 26  28  29  30  38  39  40  41  42  43  44  45 0
 3-21G
 ****


