%nproc=1
%NoSave
%Mem=1900MB
#P OB98/GEN NMR

erre ene a

0 1
  C     -139.242    -192.640      72.201
  O     -140.462    -193.013      72.805
  H     -139.333    -192.767      71.120
  H     -138.438    -193.285      72.561
  H     -139.001    -191.594      72.409
  P     -140.706    -192.653      74.346
  C     -141.502    -190.210      74.138
  O     -141.879    -191.557      74.376
  C     -142.515    -189.242      74.759
  O     -141.962    -187.895      74.715
  C     -143.869    -189.207      74.034
  O     -144.872    -188.908      75.014
  C     -143.684    -188.032      73.094
  O     -144.921    -187.558      72.610
  C     -142.895    -187.072      73.987
  N     -142.223    -186.022      73.222
  C     -142.740    -184.740      73.340
  O     -143.734    -184.473      74.018
  N     -142.111    -183.766      72.616
  C     -141.071    -183.964      71.754
  O     -140.562    -183.059      71.104
  C     -140.592    -185.349      71.635
  C     -141.177    -186.301      72.365
  O     -139.489    -192.285      75.125
  O     -141.429    -193.950      74.945
  H     -145.324    -188.217      72.003
  H     -141.203    -194.053      75.889
  H     -142.468    -182.829      72.698
  H     -139.774    -185.540      70.953
  H     -140.847    -187.333      72.301
  H     -143.557    -186.588      74.715
  H     -143.086    -188.324      72.225
  H     -144.105    -190.139      73.516
  H     -142.640    -189.499      75.817
  H     -141.461    -190.057      73.054
  H     -140.508    -190.028      74.560
  P     -145.928    -190.006      75.514
  C     -144.608    -190.931      77.524
  O     -145.758    -190.205      77.098
  O     -145.907    -191.281      74.733
  O     -147.353    -189.286      75.384
  H     -148.047    -189.955      75.233
  H     -144.604    -190.998      78.592
  H     -143.725    -190.425      77.195
  H     -144.632    -191.915      77.105

 6  7  8  9  10  11  12  13  14  15  16  26  31  32  33  34  35 0
 6-311+G(2d,p)
 ****
 36  37 0
 6-311+G(2d,p)
 ****
 1  2  3  4  5  17  18  19  20  21  22  23  24  25 0
 3-21G
 ****
 27  28  29  30  38  39  40  41  42  43  44  45 0
 3-21G
 ****


