%nproc=1
%NoSave
%Mem=1900MB
#P OB98/GEN NMR

erre ene a

0 1
  C     -338.568      73.134     -66.685
  O     -339.415      73.472     -67.790
  P     -338.700      73.980     -69.136
  C     -337.190      71.920     -69.696
  O     -338.367      72.654     -69.984
  C     -337.342      70.451     -70.120
  O     -338.398      69.821     -69.331
  C     -337.688      70.253     -71.600
  O     -336.991      69.073     -72.037
  C     -339.185      70.005     -71.575
  O     -339.630      69.315     -72.737
  C     -339.314      69.213     -70.265
  N     -340.684      69.201     -69.750
  C     -341.486      68.122     -70.118
  O     -341.120      67.253     -70.903
  N     -342.745      68.111     -69.581
  C     -343.301      69.088     -68.800
  O     -344.434      69.022     -68.348
  C     -342.440      70.260     -68.544
  C     -341.193      70.259     -69.021
  O     -337.284      74.469     -68.581
  O     -339.491      75.022     -69.859
  H     -336.937      73.907     -67.862
  H     -339.280      68.399     -72.718
  H     -343.335      67.323     -69.810
  H     -342.863      71.081     -67.977
  H     -340.544      71.113     -68.867
  H     -338.992      68.176     -70.416
  H     -339.724      70.955     -71.509
  H     -337.396      71.104     -72.229
  H     -336.405      69.930     -69.884
  H     -336.981      71.956     -68.621
  H     -336.333      72.389     -70.203
  P     -336.093      69.173     -73.372
  C     -333.836      69.012     -72.047
  O     -334.685      68.482     -73.046
  O     -335.742      70.740     -73.357
  O     -336.782      68.746     -74.631
  H     -335.441      71.053     -72.489
  H     -333.064      68.274     -71.814
  H     -334.395      69.229     -71.130
  H     -333.362      69.930     -72.411
  H     -339.169      72.814     -65.860
  H     -337.997      73.992     -66.398
  H     -337.906      72.344     -66.972

 3  4  5  6  7  8  9  10  11  12  13  24  28  29  30  31  32 0
 6-311+G(2d,p)
 ****
 33  34 0
 6-311+G(2d,p)
 ****
 1  2  14  15  16  17  18  19  20  21  22  23  25  26  27 0
 3-21G
 ****
 35  36  37  38  39  40  41  42  43  44  45 0
 3-21G
 ****


