%nproc=1
%NoSave
%Mem=1900MB
#P OB98/GEN NMR

erre ene a

0 1
  C     -738.131    -208.423    -152.586
  O     -739.180    -208.988    -151.821
  H     -737.206    -208.486    -152.009
  H     -738.347    -207.373    -152.795
  H     -738.005    -208.975    -153.523
  P     -740.597    -209.154    -152.550
  C     -741.249    -210.742    -150.561
  O     -741.634    -209.699    -151.451
  C     -742.438    -211.146    -149.690
  O     -743.600    -211.441    -150.489
  C     -742.211    -212.427    -148.898
  O     -741.292    -212.264    -147.843
  C     -743.632    -212.727    -148.448
  O     -744.000    -211.910    -147.323
  C     -744.444    -212.321    -149.704
  N     -744.889    -213.470    -150.473
  C     -745.631    -214.425    -149.764
  O     -745.881    -214.258    -148.569
  N     -746.047    -215.555    -150.418
  C     -745.772    -215.710    -151.680
  N     -746.205    -216.860    -152.270
  C     -745.021    -214.719    -152.468
  C     -744.607    -213.642    -151.810
  O     -740.363    -210.432    -153.483
  O     -741.087    -207.945    -153.275
  H     -744.931    -212.118    -147.132
  H     -740.030    -211.210    -153.000
  H     -744.822    -214.885    -153.520
  H     -744.046    -212.864    -152.313
  H     -745.328    -211.735    -149.418
  H     -743.758    -213.763    -148.140
  H     -741.894    -213.235    -149.571
  H     -742.680    -210.304    -149.031
  H     -746.703    -217.526    -151.692
  H     -740.405    -210.433    -149.940
  H     -746.024    -217.102    -153.231
  H     -740.920    -211.590    -151.172
  P     -740.177    -213.370    -147.552
  C     -738.491    -211.575    -146.801
  O     -739.206    -212.751    -146.427
  O     -739.472    -213.902    -148.758
  O     -740.972    -214.490    -146.724
  H     -741.363    -214.174    -145.893
  H     -737.881    -211.253    -145.983
  H     -739.185    -210.801    -147.055
  H     -737.870    -211.789    -147.646

 6  7  8  9  10  11  12  13  14  15  16  26  30  31  32  33  35 0
 6-311+G(2d,p)
 ****
 37  38 0
 6-311+G(2d,p)
 ****
 1  2  3  4  5  17  18  19  20  21  22  23  24  25 0
 3-21G
 ****
 27  28  29  34  36  39  40  41  42  43  44  45  46 0
 3-21G
 ****


