%nproc=1
%NoSave
%Mem=1900MB
#P OB98/GEN NMR

erre ene a

0 1
  C      108.177     230.740     -48.865
  O      109.331     231.270     -48.238
  P      109.247     231.661     -46.685
  C      108.177     233.667     -45.369
  O      108.339     232.980     -46.596
  C      107.689     235.097     -45.620
  O      108.653     235.782     -46.466
  C      106.323     235.188     -46.314
  O      105.654     236.339     -45.782
  C      106.699     235.415     -47.768
  O      105.652     236.010     -48.518
  C      107.941     236.298     -47.607
  N      108.804     236.309     -48.789
  C      108.859     237.476     -49.542
  O      108.210     238.489     -49.287
  N      109.679     237.435     -50.641
  C      110.377     236.351     -51.085
  O      111.082     236.366     -52.086
  C      110.242     235.132     -50.275
  C      109.483     235.170     -49.179
  O      110.731     232.189     -46.418
  O      108.809     230.539     -45.807
  H      111.109     232.662     -47.179
  H      106.034     236.369     -49.339
  H      109.763     238.284     -51.182
  H      110.769     234.245     -50.603
  H      109.368     234.284     -48.566
  H      107.642     237.324     -47.362
  H      106.948     234.455     -48.233
  H      105.712     234.296     -46.156
  H      107.666     235.626     -44.659
  H      109.135     233.705     -44.844
  H      107.470     233.118     -44.739
  P      104.052     236.282     -45.632
  C      102.078     235.508     -47.165
  O      103.468     235.634     -46.974
  O      103.698     237.839     -45.804
  O      103.561     235.717     -44.340
  H      104.134     238.243     -46.571
  H      101.881     235.370     -48.232
  H      101.545     236.400     -46.826
  H      101.710     234.633     -46.623
  H      108.393     230.532     -49.892
  H      107.380     231.452     -48.805
  H      107.886     229.836     -48.371

 3  4  5  6  7  8  9  10  11  12  13  24  28  29  30  31  32 0
 6-311+G(2d,p)
 ****
 33  34 0
 6-311+G(2d,p)
 ****
 1  2  14  15  16  17  18  19  20  21  22  23  25  26  27 0
 3-21G
 ****
 35  36  37  38  39  40  41  42  43  44  45 0
 3-21G
 ****


