%nproc=1
%NoSave
%Mem=1900MB
#P OB98/GEN NMR

erre ene a

0 1
  C      -41.905    -451.903     104.580
  O      -41.400    -451.058     105.611
  P      -40.597    -451.554     106.895
  C      -42.382    -450.954     108.732
  O      -41.650    -451.953     108.034
  C      -43.709    -451.518     109.269
  O      -43.409    -452.628     110.172
  C      -44.502    -450.478     110.073
  O      -45.899    -450.505     109.807
  C      -44.065    -450.751     111.503
  O      -44.965    -450.238     112.476
  C      -43.873    -452.268     111.497
  N      -42.995    -455.512     115.338
  C      -44.168    -455.268     114.648
  N      -45.255    -455.965     115.039
  N      -44.270    -454.405     113.673
  C      -43.128    -453.719     113.438
  C      -41.910    -453.858     114.062
  C      -41.795    -454.854     115.107
  O      -40.775    -455.123     115.735
  N      -40.979    -452.993     113.542
  C      -41.639    -452.319     112.622
  N      -42.948    -452.731     112.513
  O      -39.443    -450.708     107.314
  O      -40.007    -452.987     106.442
  H      -45.766    -450.792     112.462
  H      -39.153    -453.092     106.913
  H      -42.969    -456.204     116.067
  H      -41.216    -451.540     111.995
  H      -44.811    -452.801     111.676
  H      -43.106    -450.247     111.657
  H      -45.278    -456.554     115.858
  H      -44.208    -449.463     109.793
  H      -46.150    -455.626     114.682
  H      -44.289    -451.913     108.432
  H      -42.585    -450.163     108.002
  H      -41.784    -450.518     109.529
  P      -46.791    -449.414     109.058
  C      -47.665    -448.159     111.118
  O      -46.850    -448.094     109.964
  O      -48.293    -449.973     109.145
  O      -46.415    -449.170     107.632
  H      -48.635    -450.129     108.244
  H      -47.829    -447.144     111.488
  H      -47.163    -448.740     111.893
  H      -48.631    -448.613     110.885
  H      -42.401    -451.308     103.842
  H      -42.598    -452.602     104.999
  H      -41.095    -452.433     104.125

 3  4  5  6  7  8  9  10  11  12  23  26  30  31 0
 6-311+G(2d,p)
 ****
 33  35  36  37  38 0
 6-311+G(2d,p)
 ****
 1  2  13  14  15  16  17  18  19  20  21  22  24  25 0
 3-21G
 ****
 27  28  29  32  34  39  40  41  42  43  44  45  46  47  48  49 0
 3-21G
 ****


