%nproc=1
%NoSave
%Mem=1900MB
#P OB98/GEN NMR

erre ene a

0 1
  C      613.963    -127.304      71.860
  O      612.634    -126.962      72.204
  H      614.012    -128.380      71.677
  H      614.630    -127.058      72.685
  H      614.283    -126.784      70.954
  P      612.215    -125.416      72.232
  C      610.667    -125.389      70.160
  O      610.748    -125.336      71.580
  C      609.462    -126.213      69.713
  O      609.819    -127.631      69.753
  C      608.214    -126.033      70.592
  O      607.071    -126.207      69.761
  C      608.350    -127.193      71.558
  O      607.127    -127.467      72.217
  C      608.875    -128.292      70.627
  N      609.478    -129.408      71.352
  C      608.644    -130.463      71.689
  O      607.428    -130.468      71.433
  N      609.216    -131.494      72.377
  C      610.513    -131.551      72.805
  O      610.960    -132.481      73.444
  C      611.353    -130.379      72.451
  C      610.802    -129.377      71.743
  O      613.206    -124.462      71.656
  O      611.925    -125.113      73.781
  H      606.987    -126.832      72.952
  H      612.122    -124.183      73.980
  H      608.619    -132.262      72.628
  H      612.384    -130.386      72.784
  H      611.398    -128.507      71.486
  H      608.067    -128.689      70.008
  H      609.085    -126.966      72.346
  H      608.180    -125.063      71.093
  H      609.242    -125.971      68.673
  H      611.595    -125.850      69.795
  H      610.593    -124.371      69.758
  P      605.568    -125.966      70.289
  C      604.917    -124.321      68.402
  O      604.640    -125.569      69.038
  O      605.474    -125.005      71.444
  O      605.039    -127.416      70.708
  H      604.369    -127.324      71.416
  H      604.235    -124.175      67.590
  H      605.920    -124.326      68.029
  H      604.804    -123.527      69.110

 6  7  8  9  10  11  12  13  14  15  16  26  31  32  33  34  35 0
 6-311+G(2d,p)
 ****
 36  37 0
 6-311+G(2d,p)
 ****
 1  2  3  4  5  17  18  19  20  21  22  23  24  25 0
 3-21G
 ****
 27  28  29  30  38  39  40  41  42  43  44  45 0
 3-21G
 ****


