%nproc=1
%NoSave
%Mem=1900MB
#P OB98/GEN NMR

erre ene a

0 1
  C       43.843    -169.574    -148.829
  O       43.132    -168.951    -147.776
  H       44.050    -170.610    -148.548
  H       44.791    -169.058    -149.000
  H       43.244    -169.568    -149.744
  P       42.751    -167.406    -147.987
  C       44.078    -165.177    -147.920
  O       44.075    -166.568    -147.630
  C       45.026    -164.440    -146.981
  O       44.477    -164.381    -145.644
  C       46.408    -165.071    -146.856
  O       47.249    -164.677    -147.926
  C       46.866    -164.521    -145.512
  O       47.373    -163.176    -145.640
  C       45.566    -164.541    -144.696
  N       46.928    -166.975    -140.488
  C       47.271    -165.718    -140.942
  N       48.153    -165.028    -140.184
  N       46.805    -165.188    -142.040
  C       45.959    -166.008    -142.709
  C       45.528    -167.265    -142.356
  C       46.029    -167.826    -141.119
  O       45.713    -168.905    -140.629
  N       44.656    -167.770    -143.285
  C       44.590    -166.838    -144.216
  N       45.378    -165.755    -143.921
  O       41.776    -167.090    -146.756
  O       42.111    -167.076    -149.292
  H       46.663    -162.596    -145.963
  H       41.134    -166.407    -147.024
  H       47.306    -167.320    -139.623
  H       43.992    -166.900    -145.115
  H       45.509    -163.704    -143.991
  H       47.672    -165.119    -145.086
  H       48.779    -165.494    -139.541
  H       46.332    -166.164    -146.793
  H       48.428    -164.114    -140.521
  H       45.107    -163.406    -147.341
  H       43.064    -164.784    -147.790
  H       44.388    -165.028    -148.960
  P       47.989    -165.835    -148.758
  C       49.971    -167.458    -148.294
  O       49.114    -166.441    -147.787
  O       48.840    -165.023    -149.843
  O       47.076    -166.828    -149.392
  H       49.114    -165.618    -150.569
  H       50.661    -167.756    -147.532
  H       50.511    -167.081    -149.137
  H       49.385    -168.302    -148.594

 6  7  8  9  10  11  12  13  14  15  26  29  33  34 0
 6-311+G(2d,p)
 ****
 36  38  39  40  41 0
 6-311+G(2d,p)
 ****
 1  2  3  4  5  16  17  18  19  20  21  22  23  24  25 0
 3-21G
 ****
 27  28  30  31  32  35  37  42  43  44  45  46  47 0
 3-21G
 ****
 48  49 0
 3-21G
 ****


