%nproc=1
%NoSave
%Mem=1900MB
#P OB98/GEN NMR

erre ene a

0 1
  C     -250.954      49.564    -288.942
  O     -250.885      49.974    -287.590
  H     -250.083      49.959    -289.472
  H     -251.857      49.956    -289.416
  H     -250.941      48.473    -289.012
  P     -252.061      49.523    -286.601
  C     -253.360      51.656    -285.949
  O     -253.262      50.557    -286.844
  C     -252.283      52.686    -286.266
  O     -252.159      52.861    -287.691
  C     -252.557      54.072    -285.682
  O     -252.185      54.116    -284.316
  C     -251.672      54.927    -286.572
  O     -250.297      54.791    -286.164
  C     -251.886      54.267    -287.947
  N     -253.305      57.908    -291.175
  C     -252.091      57.703    -290.547
  N     -251.133      58.626    -290.782
  N     -251.847      56.697    -289.747
  C     -252.920      55.898    -289.551
  C     -254.176      56.008    -290.104
  C     -254.418      57.094    -291.031
  O     -255.473      57.302    -291.622
  N     -255.025      55.046    -289.618
  C     -254.272      54.333    -288.805
  N     -252.989      54.817    -288.717
  O     -251.688      49.359    -285.158
  O     -252.607      48.163    -287.239
  H     -250.240      55.144    -285.257
  H     -252.161      47.387    -286.856
  H     -253.436      58.713    -291.765
  H     -254.603      53.457    -288.257
  H     -250.992      54.320    -288.577
  H     -251.920      55.986    -286.534
  H     -251.354      59.544    -291.146
  H     -253.599      54.376    -285.833
  H     -250.254      58.520    -290.292
  H     -251.323      52.293    -285.907
  H     -253.231      51.268    -284.933
  H     -254.348      52.121    -286.023
  P     -252.787      55.230    -283.328
  C     -250.973      56.841    -282.435
  O     -251.834      56.505    -283.515
  O     -252.963      54.785    -281.914
  O     -254.140      55.701    -284.031
  H     -254.927      55.161    -283.775
  H     -250.398      57.706    -282.693
  H     -250.315      56.021    -282.235
  H     -251.558      57.049    -281.564

 6  7  8  9  10  11  12  13  14  15  26  29  33  34 0
 6-311+G(2d,p)
 ****
 36  38  39  40  41 0
 6-311+G(2d,p)
 ****
 1  2  3  4  5  16  17  18  19  20  21  22  23  24  25 0
 3-21G
 ****
 27  28  30  31  32  35  37  42  43  44  45  46  47 0
 3-21G
 ****
 48  49 0
 3-21G
 ****


