%nproc=1
%NoSave
%Mem=1900MB
#P OB98/GEN NMR

erre ene a

0 1
  C      378.427    -151.747     145.171
  O      378.649    -150.552     144.449
  H      379.174    -151.815     145.967
  H      378.538    -152.615     144.517
  H      377.433    -151.744     145.625
  P      377.683    -150.213     143.215
  C      377.147    -148.020     141.935
  O      377.959    -148.655     142.913
  C      376.622    -146.690     142.468
  O      375.498    -146.886     143.357
  C      377.629    -145.887     143.291
  O      378.642    -145.276     142.518
  C      376.691    -144.871     143.925
  O      376.327    -143.877     142.953
  C      375.483    -145.768     144.290
  N      375.537    -146.252     145.671
  C      374.337    -146.231     146.389
  O      373.300    -145.812     145.868
  N      374.337    -146.654     147.697
  C      375.447    -147.042     148.245
  N      375.391    -147.446     149.546
  C      376.737    -147.062     147.534
  C      376.713    -146.663     146.263
  O      376.245    -150.587     143.385
  O      378.380    -150.911     141.954
  H      375.704    -143.268     143.391
  H      377.813    -150.741     141.161
  H      377.640    -147.368     148.044
  H      377.622    -146.646     145.675
  H      374.538    -145.233     144.138
  H      377.135    -144.349     144.772
  H      378.061    -146.506     144.090
  H      376.258    -146.112     141.608
  H      374.490    -147.419     150.006
  H      376.326    -148.695     141.685
  H      376.218    -147.693     150.074
  H      377.735    -147.824     141.033
  P      380.084    -145.098     143.217
  C      382.260    -144.003     142.278
  O      381.127    -144.819     142.031
  O      380.432    -146.578     143.708
  O      380.128    -144.095     144.325
  H      380.226    -146.689     144.654
  H      382.844    -143.923     141.385
  H      382.853    -144.441     143.054
  H      381.938    -143.029     142.582

 6  7  8  9  10  11  12  13  14  15  16  26  30  31  32  33  35 0
 6-311+G(2d,p)
 ****
 37  38 0
 6-311+G(2d,p)
 ****
 1  2  3  4  5  17  18  19  20  21  22  23  24  25 0
 3-21G
 ****
 27  28  29  34  36  39  40  41  42  43  44  45  46 0
 3-21G
 ****


