%nproc=1
%NoSave
%Mem=1900MB
#P OB98/GEN NMR

erre ene a

0 1
  C     -891.453     198.169     266.789
  O     -892.043     196.887     266.691
  H     -891.863     198.808     266.007
  H     -890.373     198.093     266.651
  H     -891.673     198.612     267.767
  P     -891.573     195.799     267.772
  C     -893.733     195.234     269.116
  O     -892.853     194.881     268.062
  C     -895.193     195.109     268.663
  O     -895.493     196.201     267.755
  C     -895.503     193.804     267.905
  O     -896.883     193.472     268.124
  C     -895.303     194.238     266.463
  O     -895.843     193.280     265.570
  C     -895.963     195.606     266.515
  N     -896.693     196.476     261.531
  C     -897.243     195.575     262.372
  N     -897.003     195.411     263.689
  C     -896.113     196.320     264.129
  C     -895.493     197.304     263.393
  C     -895.813     197.370     262.026
  N     -895.243     198.279     261.155
  N     -894.633     198.049     264.193
  C     -894.753     197.519     265.396
  N     -895.633     196.472     265.403
  O     -891.403     196.656     269.112
  O     -890.323     195.050     267.430
  H     -895.583     192.371     265.836
  H     -890.473     196.929     269.222
  H     -897.963     194.888     261.930
  H     -894.223     197.849     266.284
  H     -897.053     195.534     266.571
  H     -894.233     194.324     266.221
  H     -894.863     192.963     268.214
  H     -895.853     195.225     269.536
  H     -893.523     196.281     269.403
  H     -893.553     194.583     269.978
  H     -895.513     198.251     260.186
  H     -894.563     198.942     261.507
  P     -897.263     191.971     268.570
  C     -898.953     192.180     270.557
  O     -898.753     191.980     269.163
  O     -896.383     191.783     269.897
  O     -896.963     190.905     267.575
  H     -896.173     190.841     270.022
  H     -900.000     192.156     270.774
  H     -898.551     193.130     270.842
  H     -898.457     191.405     271.103

 6  7  8  9  10  11  12  13  14  15  25  28  32  33  34  35 0
 6-311+G(2d,p)
 ****
 36  37  40 0
 6-311+G(2d,p)
 ****
 1  2  3  4  5  16  17  18  19  20  21  22  23  24 0
 3-21G
 ****
 26  27  29  30  31  38  39 41  42  43  44  45  46  47  48 0
 3-21G
 ****


