%nproc=1
%NoSave
%Mem=1900MB
#P OB98/GEN NMR

erre ene a

0 1
  C     -131.914     499.362      30.620
  O     -133.044     500.143      30.292
  H     -132.181     498.302      30.540
  H     -131.601     499.563      31.650
  H     -131.086     499.567      29.932
  P     -132.834     501.732      30.187
  C     -135.001     502.168      31.562
  O     -134.289     502.392      30.349
  C     -136.343     502.908      31.549
  O     -137.327     502.073      30.880
  C     -136.870     503.239      32.945
  O     -137.492     504.531      32.894
  C     -137.931     502.181      33.182
  O     -138.924     502.597      34.126
  C     -138.454     501.926      31.767
  N     -139.065     500.609      31.649
  C     -140.376     500.486      32.114
  O     -140.956     501.450      32.604
  N     -140.986     499.245      32.074
  C     -140.306     498.214      31.676
  N     -140.950     497.012      31.687
  C     -138.897     498.284      31.237
  C     -138.352     499.500      31.249
  O     -132.501     501.960      28.640
  O     -131.791     502.297      31.087
  H     -138.508     502.628      35.016
  H     -131.896     502.720      28.520
  H     -138.366     497.394      30.947
  H     -137.316     499.653      30.945
  H     -139.194     502.691      31.490
  H     -137.462     501.271      33.586
  H     -136.098     503.240      33.714
  H     -136.225     503.822      30.942
  H     -141.909     497.006      32.005
  H     -134.399     502.536      32.398
  H     -140.508     496.137      31.443
  H     -135.161     501.095      31.693
  P     -137.366     505.433      34.222
  C     -139.798     506.355      34.398
  O     -138.438     506.637      34.103
  O     -135.957     506.165      34.038
  O     -137.439     504.649      35.490
  H     -135.312     505.792      34.664
  H     -140.381     507.244      34.276
  H     -139.880     506.011      35.408
  H     -140.158     505.598      33.733

 6  7  8  9  10  11  12  13  14  15  16  26  30  31  32  33  35 0
 6-311+G(2d,p)
 ****
 37  38 0
 6-311+G(2d,p)
 ****
 1  2  3  4  5  17  18  19  20  21  22  23  24  25 0
 3-21G
 ****
 27  28  29  34  36  39  40  41  42  43  44  45  46 0
 3-21G
 ****


