%nproc=1
%NoSave
%Mem=1900MB
#P OB98/GEN NMR

erre ene a

0 1
  C      639.232      23.591     -32.032
  O      640.230      23.621     -33.032
  H      638.666      22.658     -32.090
  H      639.714      23.645     -31.049
  H      638.557      24.447     -32.141
  P      639.731      23.563     -34.556
  C      641.198      21.469     -35.022
  O      639.893      22.031     -35.007
  C      641.134      20.047     -35.569
  O      640.344      19.209     -34.694
  C      640.495      19.929     -36.945
  O      641.401      20.247     -37.986
  C      640.136      18.449     -36.961
  O      641.318      17.669     -37.219
  C      639.650      18.228     -35.523
  N      635.056      16.416     -36.844
  C      636.306      16.046     -37.191
  N      637.481      16.582     -36.798
  C      637.271      17.610     -35.957
  C      636.059      18.107     -35.520
  C      634.900      17.458     -35.992
  N      633.623      17.845     -35.649
  N      636.248      19.196     -34.686
  C      637.556      19.329     -34.600
  N      638.220      18.395     -35.359
  O      640.901      24.306     -35.362
  O      638.385      24.158     -34.821
  H      641.066      16.734     -37.118
  H      640.564      24.610     -36.227
  H      636.369      15.206     -37.880
  H      638.064      20.072     -34.008
  H      639.910      17.240     -35.140
  H      639.408      18.196     -37.734
  H      639.572      20.522     -37.018
  H      642.160      19.640     -35.575
  H      641.591      21.450     -34.002
  H      632.872      17.442     -36.187
  H      633.504      18.712     -35.138
  H      641.854      22.091     -35.649
  P      640.792      20.459     -39.460
  C      642.343      18.542     -40.292
  O      641.022      19.071     -40.234
  O      641.836      21.451     -40.148
  O      639.391      20.992     -39.483
  H      641.408      21.976     -40.850
  H      642.335      17.621     -40.837
  H      642.701      18.366     -39.299
  H      642.986      19.241     -40.784

 6  7  8  9  10  11  12  13  14  15  25  28  32  33  34  35 0
 6-311+G(2d,p)
 ****
 36  39  40 0
 6-311+G(2d,p)
 ****
 1  2  3  4  5  16  17  18  19  20  21  22  23  24 0
 3-21G
 ****
 26  27  29  30  31  37  38  41  42  43  44  45  46  47 0
 3-21G
 ****
 48 0
 3-21G
 ****


