%nproc=1
%NoSave
%Mem=1900MB
#P OB98/GEN NMR

erre ene a

0 1
  C      616.191    -891.110    1260.687
  O      615.731    -892.160    1259.844
  P      615.609    -891.890    1258.244
  C      618.137    -891.940    1257.801
  O      616.867    -892.560    1257.532
  C      619.217    -893.020    1257.959
  O      619.056    -893.740    1259.214
  C      619.216    -894.060    1256.879
  O      619.737    -893.570    1255.660
  C      620.069    -895.170    1257.532
  O      621.469    -894.830    1257.401
  C      619.654    -895.040    1259.018
  N      618.745    -896.130    1259.395
  C      619.337    -897.310    1259.847
  O      620.579    -897.430    1259.845
  N      618.519    -898.310    1260.334
  C      617.245    -898.200    1260.242
  N      616.480    -899.210    1260.736
  C      616.566    -897.040    1259.601
  C      617.377    -896.050    1259.238
  O      615.316    -890.500    1257.859
  O      614.397    -892.880    1257.835
  H      613.755    -892.370    1257.309
  H      621.763    -895.230    1256.533
  H      615.499    -897.010    1259.498
  H      616.996    -895.130    1258.805
  H      620.549    -895.070    1259.659
  H      619.929    -896.150    1257.087
  H      618.203    -894.470    1256.723
  H      620.200    -892.500    1258.009
  H      616.969    -900.000    1261.180
  H      618.061    -891.370    1258.724
  H      615.497    -899.080    1261.001
  H      618.392    -891.270    1256.993
  P      618.936    -894.050    1254.304
  C      618.062    -891.700    1253.644
  O      618.931    -892.810    1253.302
  O      617.430    -894.190    1254.780
  O      619.462    -895.310    1253.732
  H      617.013    -894.960    1254.343
  H      618.391    -890.820    1253.069
  H      618.109    -891.470    1254.721
  H      617.039    -891.930    1253.344
  H      616.212    -891.450    1261.701
  H      615.531    -890.272    1260.606
  H      617.176    -890.818    1260.388

 3  4  5  6  7  8  9  10  11  12  13  24  27  28  29  30  32 0
 6-311+G(2d,p)
 ****
 34  35 0
 6-311+G(2d,p)
 ****
 1  2  14  15  16  17  18  19  20  21  22  23  25  26 0
 3-21G
 ****
 31  33  36  37  38  39  40  41  42  43  44  45  46 0
 3-21G
 ****


