%nproc=1
%NoSave
%Mem=1900MB
#P OB98/GEN NMR

erre ene a

0 1
  C      -35.980    -366.929      41.656
  O      -35.947    -366.572      40.290
  H      -35.811    -368.006      41.742
  H      -36.959    -366.693      42.078
  H      -35.198    -366.405      42.213
  P      -35.968    -365.003      39.956
  C      -38.224    -365.046      38.672
  O      -37.512    -364.588      39.812
  C      -39.530    -364.272      38.521
  O      -40.405    -364.540      39.639
  C      -39.360    -362.757      38.468
  O      -39.012    -362.310      37.165
  C      -40.759    -362.305      38.848
  O      -41.641    -362.451      37.717
  C      -41.129    -363.313      39.943
  N      -42.814    -360.981      44.115
  C      -43.455    -361.229      42.916
  N      -44.724    -360.781      42.809
  N      -42.903    -361.852      41.909
  C      -41.625    -362.231      42.153
  C      -40.885    -362.048      43.299
  C      -41.511    -361.363      44.407
  O      -40.997    -361.139      45.499
  N      -39.629    -362.580      43.176
  C      -39.602    -363.071      41.953
  N      -40.787    -362.879      41.287
  O      -35.429    -364.937      38.446
  O      -35.151    -364.144      40.860
  H      -41.312    -361.853      37.023
  H      -34.892    -364.129      38.340
  H      -43.283    -360.487      44.854
  H      -38.756    -363.571      41.505
  H      -42.197    -363.554      39.946
  H      -40.796    -361.257      39.150
  H      -45.193    -360.251      43.527
  H      -38.645    -362.407      39.221
  H      -45.226    -360.980      41.953
  H      -40.034    -364.635      37.616
  H      -38.446    -366.110      38.790
  H      -37.600    -364.909      37.784
  P      -38.288    -360.880      37.037
  C      -40.334    -360.007      35.693
  O      -39.471    -359.819      36.809
  O      -37.584    -360.959      35.602
  O      -37.320    -360.563      38.124
  H      -36.837    -360.332      35.562
  H      -41.066    -359.227      35.673
  H      -40.824    -360.955      35.777
  H      -39.760    -359.981      34.790

 6  7  8  9  10  11  12  13  14  15  26  29  33  34 0
 6-311+G(2d,p)
 ****
 36  38  39  40  41 0
 6-311+G(2d,p)
 ****
 1  2  3  4  5  16  17  18  19  20  21  22  23  24  25 0
 3-21G
 ****
 27  28  30  31  32  35  37  42  43  44  45  46  47 0
 3-21G
 ****
 48  49 0
 3-21G
 ****


