%nproc=1
%NoSave
%Mem=1900MB
#P OB98/GEN NMR

erre ene a

0 1
  C       56.218      -0.330     -15.326
  O       56.279      -0.684     -13.938
  P       55.120      -1.497     -13.182
  C       54.689      -4.020     -13.575
  O       55.580      -3.032     -13.068
  C       54.795      -5.313     -12.763
  O       56.151      -5.816     -12.793
  C       54.482      -5.177     -11.281
  O       53.098      -5.017     -11.032
  C       55.074      -6.474     -10.731
  O       54.151      -7.565     -10.860
  C       56.286      -6.699     -11.655
  N       57.558      -6.494     -10.982
  C       58.013      -7.536     -10.169
  O       57.313      -8.531      -9.983
  N       59.244      -7.415      -9.576
  C       59.912      -6.310      -9.694
  N       61.134      -6.255      -9.099
  C       59.405      -5.136     -10.429
  C       58.235      -5.297     -11.045
  O       53.765      -1.320     -13.783
  O       55.153      -0.973     -11.670
  H       54.272      -1.082     -11.268
  H       53.363      -7.332     -10.332
  H       59.975      -4.219     -10.469
  H       57.796      -4.489     -11.620
  H       56.260      -7.712     -12.072
  H       55.331      -6.392      -9.670
  H       55.036      -4.323     -10.871
  H       54.135      -6.060     -13.225
  H       61.456      -7.081      -8.611
  H       54.963      -4.231     -14.615
  H       61.743      -5.451      -9.149
  H       53.668      -3.627     -13.557
  P       52.648      -3.689     -10.253
  C       52.220      -1.206     -10.872
  O       52.599      -2.493     -11.317
  O       53.917      -3.339      -9.340
  O       51.413      -3.845      -9.427
  H       53.617      -3.016      -8.472
  H       52.684      -0.460     -11.522
  H       52.536      -1.025      -9.841
  H       51.134      -1.107     -10.941
  H       57.104       0.206     -15.597
  H       55.361       0.287     -15.499
  H       56.144      -1.218     -15.918

 3  4  5  6  7  8  9  10  11  12  13  24  27  28  29  30  32 0
 6-311+G(2d,p)
 ****
 34  35 0
 6-311+G(2d,p)
 ****
 1  2  14  15  16  17  18  19  20  21  22  23  25  26 0
 3-21G
 ****
 31  33  36  37  38  39  40  41  42  43  44  45  46 0
 3-21G
 ****


