%nproc=1
%NoSave
%Mem=1900MB
#P OB98/GEN NMR

erre ene a

0 1
  C      -76.748    -181.107     539.042
  O      -78.035    -180.702     538.615
  H      -76.029    -180.882     538.249
  H      -76.723    -182.181     539.242
  H      -76.458    -180.556     539.941
  P      -79.300    -181.156     539.495
  C      -78.439    -179.424     541.210
  O      -78.942    -180.745     541.007
  C      -79.578    -178.449     541.526
  O      -80.360    -178.196     540.340
  C      -80.569    -178.974     542.552
  O      -80.046    -179.080     543.860
  C      -81.795    -178.110     542.296
  O      -81.771    -176.870     542.999
  C      -81.692    -177.853     540.773
  N      -82.711    -178.576     540.026
  C      -83.574    -177.796     539.260
  O      -83.521    -176.566     539.219
  N      -84.543    -178.476     538.572
  C      -84.751    -179.825     538.615
  O      -85.666    -180.369     538.007
  C      -83.824    -180.594     539.461
  C      -82.861    -179.946     540.115
  O      -79.720    -182.587     539.338
  O      -80.436    -180.105     539.096
  H      -80.848    -176.553     542.986
  H      -81.331    -180.429     539.361
  H      -85.170    -177.929     538.007
  H      -83.965    -181.665     539.519
  H      -82.163    -180.493     540.748
  H      -81.819    -176.781     540.563
  H      -82.712    -178.624     542.587
  H      -80.849    -179.995     542.261
  H      -79.137    -177.499     541.851
  H      -77.944    -179.111     540.284
  H      -77.701    -179.427     542.016
  P      -80.748    -179.925     545.021
  C      -80.285    -182.377     544.289
  O      -81.240    -181.322     544.394
  O      -81.675    -179.182     545.929
  O      -79.470    -180.377     545.897
  H      -79.753    -180.401     546.835
  H      -80.751    -183.238     543.857
  H      -79.916    -182.622     545.263
  H      -79.472    -182.062     543.668

 6  7  8  9  10  11  12  13  14  15  16  26  31  32  33  34  35 0
 6-311+G(2d,p)
 ****
 36  37 0
 6-311+G(2d,p)
 ****
 1  2  3  4  5  17  18  19  20  21  22  23  24  25 0
 3-21G
 ****
 27  28  29  30  38  39  40  41  42  43  44  45 0
 3-21G
 ****


