%nproc=1
%NoSave
%Mem=1900MB
#P OB98/GEN NMR

erre ene a

0 1
  C        8.692     -44.886     -27.477
  O        9.351     -45.546     -28.542
  P       10.217     -44.670     -29.565
  C       12.139     -42.939     -29.300
  O       11.014     -43.570     -28.711
  C       12.139     -41.442     -28.981
  O       11.042     -40.798     -29.696
  C       11.963     -41.121     -27.490
  O       12.719     -39.933     -27.213
  C       10.481     -40.815     -27.393
  O       10.138     -40.068     -26.236
  C       10.272     -40.072     -28.717
  N        8.865     -39.976     -29.100
  C        8.078     -39.057     -28.415
  O        8.494     -38.330     -27.515
  N        6.752     -39.037     -28.756
  C        6.133     -39.885     -29.626
  O        4.920     -39.892     -29.800
  C        7.014     -40.836     -30.321
  C        8.318     -40.838     -30.031
  O        9.111     -43.817     -30.345
  O       11.071     -45.462     -30.497
  H        9.172     -40.129     -26.124
  H        8.926     -44.215     -31.216
  H        6.169     -38.369     -28.277
  H        6.559     -41.510     -31.034
  H        8.988     -41.542     -30.514
  H       10.701     -39.064     -28.656
  H        9.916     -41.754     -27.368
  H       12.273     -41.934     -26.827
  H       13.071     -41.005     -29.358
  H       12.101     -43.075     -30.381
  H       13.058     -43.411     -28.934
  P       13.281     -39.732     -25.721
  C       14.885     -41.158     -24.230
  O       13.959     -41.118     -25.294
  O       11.912     -39.699     -24.889
  O       14.113     -38.503     -25.554
  H       11.282     -40.379     -25.178
  H       14.633     -40.435     -23.450
  H       15.885     -40.942     -24.612
  H       14.882     -42.161     -23.796
  H        8.160     -45.603     -26.887
  H        8.004     -44.169     -27.873
  H        9.414     -44.387     -26.865

 3  4  5  6  7  8  9  10  11  12  13  23  28  29  30  31  32 0
 6-311+G(2d,p)
 ****
 33  34 0
 6-311+G(2d,p)
 ****
 1  2  14  15  16  17  18  19  20  21  22  24  25  26 0
 3-21G
 ****
 27  35  36  37  38  39  40  41  42  43  44  45 0
 3-21G
 ****


