%nproc=1
%NoSave
%Mem=1900MB
#P OB98/GEN NMR

erre ene a

0 1
  C       71.758     131.874      56.983
  O       71.443     130.671      56.272
  P       71.003     130.847      54.732
  C       72.421     129.010      53.556
  O       72.245     130.403      53.806
  C       73.496     128.756      52.490
  O       72.981     129.127      51.196
  C       74.797     129.541      52.700
  O       75.903     128.713      52.308
  C       74.695     130.669      51.689
  O       75.970     131.203      51.344
  C       73.968     129.953      50.552
  N       74.743     133.123      46.683
  C       75.622     132.262      47.307
  N       76.894     132.267      46.848
  N       75.286     131.473      48.293
  C       73.976     131.547      48.615
  C       72.999     132.346      48.069
  C       73.394     133.251      47.009
  O       72.673     134.065      46.450
  N       71.777     132.143      48.673
  C       72.015     131.223      49.592
  N       73.337     130.836      49.605
  O       70.943     132.436      54.549
  O       69.700     130.208      54.399
  H       75.822     132.101      50.993
  H       70.059     132.701      54.239
  H       75.053     133.727      45.943
  H       71.290     130.825      50.278
  H       74.654     129.290      49.998
  H       74.090     131.481      52.110
  H       77.203     132.807      46.062
  H       74.950     129.907      53.722
  H       77.546     131.615      47.275
  H       73.704     127.682      52.468
  H       71.477     128.579      53.214
  H       72.695     128.522      54.497
  P       76.470     127.697      53.416
  C       76.859     125.666      51.838
  O       76.099     126.227      52.889
  O       75.480     127.913      54.654
  O       77.895     127.924      53.785
  H       75.930     127.699      55.491
  H       77.763     126.241      51.621
  H       76.247     125.627      50.932
  H       77.150     124.645      52.114
  H       72.034     131.632      57.988
  H       70.903     132.517      56.993
  H       72.572     132.371      56.499

 3  4  5  6  7  8  9  10  11  12  23  26  30  31  33  0
 6-311+G(2d,p)
 ****
 35  36  37  38 0
 6-311+G(2d,p)
 ****
 1  2  13  14  15  16  17  18  19  20  21  22  24  25  27  28  29 0
 3-21G
 ****
 32  34  39  40  41  42  43  44  45  46  47  48  49 0
 3-21G
 ****


