%nproc=1
%NoSave
%Mem=1900MB
#P OB98/GEN NMR

erre ene a

0 1
  C       61.234     725.815     567.932
  O       62.497     725.147     568.000
  P       63.509     725.470     569.194
  C       65.557     724.367     570.309
  O       64.641     724.321     569.223
  C       66.744     723.461     570.028
  O       66.376     722.064     570.100
  C       67.350     723.633     568.637
  O       68.075     724.843     568.518
  C       68.198     722.359     568.529
  O       69.448     722.518     569.202
  C       67.319     721.342     569.263
  N       66.604     720.448     568.342
  C       66.679     719.085     568.649
  O       67.337     718.691     569.601
  N       65.945     718.215     567.862
  C       65.338     718.641     566.811
  N       64.584     717.738     566.099
  C       65.386     720.062     566.353
  C       66.009     720.898     567.163
  O       62.852     725.738     570.521
  O       64.328     726.746     568.700
  H       64.313     727.427     569.389
  H       69.981     723.135     568.657
  H       64.909     720.333     565.419
  H       66.092     721.946     566.946
  H       67.908     720.735     569.938
  H       68.422     722.113     567.471
  H       66.546     723.608     567.883
  H       67.509     723.652     570.814
  H       64.558     716.787     566.445
  H       65.034     724.027     571.211
  H       63.844     718.038     565.472
  H       65.878     725.401     570.456
  P       68.806     725.106     567.103
  C       69.409     727.236     565.733
  O       68.583     726.655     566.735
  O       67.879     724.333     566.046
  O       70.217     724.651     567.022
  H       68.425     723.943     565.352
  H       68.922     728.135     565.360
  H       69.577     726.556     564.898
  H       70.374     727.506     566.176
  H       60.696     725.474     567.072
  H       61.392     726.871     567.858
  H       60.669     725.600     568.815

 3  4  5  6  7  8  9  10  11  12  13  24  27  28  29  30  32 0
 6-311+G(2d,p)
 ****
 34  35 0
 6-311+G(2d,p)
 ****
 1  2  14  15  16  17  18  19  20  21  22  23  25  26 0
 3-21G
 ****
 31  33  36  37  38  39  40  41  42  43  44  45  46 0
 3-21G
 ****


