%nproc=1
%NoSave
%Mem=1900MB
#P OB98/GEN NMR

erre ene a

0 1
  C      493.003      28.277     -29.537
  O      493.913      29.197     -28.936
  P      493.399      30.621     -28.397
  C      495.249      31.163     -26.716
  O      494.668      31.510     -27.968
  C      496.348      30.092     -26.829
  O      497.433      30.547     -27.676
  C      496.967      29.664     -25.498
  O      497.294      28.277     -25.646
  C      498.225      30.511     -25.436
  O      499.183      30.004     -24.521
  C      498.648      30.506     -26.913
  N      499.533      31.625     -27.237
  C      500.885      31.469     -26.938
  O      501.281      30.449     -26.370
  N      501.757      32.485     -27.242
  C      501.293      33.602     -27.718
  N      502.200      34.587     -27.976
  C      499.858      33.847     -27.967
  C      499.048      32.817     -27.715
  O      492.319      30.547     -27.370
  O      492.865      31.360     -29.718
  H      499.439      29.100     -24.807
  H      492.141      31.969     -29.478
  H      499.515      34.803     -28.335
  H      497.977      32.890     -27.872
  H      499.166      29.575     -27.159
  H      497.967      31.527     -25.118
  H      496.310      29.817     -24.641
  H      495.899      29.221     -27.330
  H      503.171      34.391     -27.763
  H      494.459      30.793     -26.056
  H      501.935      35.521     -28.233
  H      495.663      32.068     -26.254
  P      496.464      27.122     -24.909
  C      496.924      24.961     -26.189
  O      497.297      25.766     -25.089
  O      495.030      27.030     -25.307
  O      496.617      27.445     -23.345
  H      495.926      26.963     -22.852
  H      497.685      24.182     -26.331
  H      496.844      25.550     -27.099
  H      495.963      24.477     -25.986
  H      493.530      27.393     -29.829
  H      492.557      28.728     -30.399
  H      492.239      28.020     -28.833

 3  4  5  6  7  8  9  10  11  12  13  23  27  28  29  30  32 0
 6-311+G(2d,p)
 ****
 34  35 0
 6-311+G(2d,p)
 ****
 1  2  14  15  16  17  18  19  20  21  22  24  25  26 0
 3-21G
 ****
 31  33  36  37  38  39  40  41  42  43  44  45  46 0
 3-21G
 ****


