%nproc=1
%NoSave
%Mem=1900MB
#P OB98/GEN NMR

erre ene a

0 1
  C      -23.179     -60.554     -21.763
  O      -22.307     -61.438     -21.083
  P      -22.168     -61.303     -19.491
  C      -23.987     -63.080     -18.834
  O      -23.587     -61.723     -18.873
  C      -24.276     -63.508     -17.391
  O      -25.065     -62.473     -16.742
  C      -25.053     -64.825     -17.263
  O      -24.569     -65.490     -16.089
  C      -26.482     -64.354     -17.059
  O      -27.298     -65.334     -16.438
  C      -26.250     -63.098     -16.213
  N      -27.376     -62.164     -16.237
  C      -27.272     -60.999     -15.484
  O      -26.300     -60.721     -14.784
  N      -28.353     -60.159     -15.537
  C      -29.524     -60.393     -16.196
  O      -30.468     -59.613     -16.194
  C      -29.595     -61.661     -16.935
  C      -28.533     -62.468     -16.930
  O      -22.123     -59.715     -19.318
  O      -20.998     -62.033     -18.926
  H      -22.689     -59.246     -19.955
  H      -26.967     -65.474     -15.533
  H      -28.285     -59.290     -15.027
  H      -30.514     -61.891     -17.460
  H      -28.561     -63.409     -17.466
  H      -26.029     -63.379     -15.176
  H      -26.925     -64.107     -18.030
  H      -24.928     -65.472     -18.135
  H      -23.321     -63.573     -16.855
  H      -23.188     -63.707     -19.237
  H      -24.872     -63.215     -19.465
  P      -24.705     -67.092     -16.015
  C      -22.368     -67.624     -17.065
  O      -23.771     -67.704     -17.161
  O      -26.180     -67.279     -16.618
  O      -24.561     -67.672     -14.647
  H      -26.317     -66.784     -17.441
  H      -21.925     -68.366     -17.735
  H      -22.024     -67.825     -16.047
  H      -22.035     -66.629     -17.373
  H      -23.160     -60.770     -22.811
  H      -22.861     -59.545     -21.601
  H      -24.174     -60.678     -21.391

 3  4  5  6  7  8  9  10  11  12  13  24  28  29  30  31  32 0
 6-311+G(2d,p)
 ****
 33  34 0
 6-311+G(2d,p)
 ****
 1  2  14  15  16  17  18  19  20  21  22  23  25  26  27 0
 3-21G
 ****
 35  36  37  38  39  40  41  42  43  44  45 0
 3-21G
 ****


