%nproc=1
%NoSave
%Mem=1900MB
#P OB98/GEN NMR

erre ene a

0 1
  C       83.589     -23.493      50.754
  O       82.968     -22.274      51.166
  P       81.943     -22.389      52.397
  C       80.108     -23.493      50.936
  O       80.941     -23.604      52.080
  C       78.925     -24.464      51.021
  O       79.372     -25.839      50.824
  C       78.188     -24.421      52.371
  O       76.801     -24.650      52.090
  C       78.796     -25.607      53.101
  O       78.039     -26.019      54.227
  C       78.888     -26.601      51.951
  N       79.612     -30.638      54.982
  C       78.657     -29.683      54.963
  N       78.535     -28.634      54.122
  C       79.536     -28.633      53.225
  C       80.582     -29.537      53.121
  C       80.600     -30.585      54.058
  N       81.579     -31.549      54.101
  N       81.430     -29.185      52.081
  C       80.934     -28.050      51.624
  N       79.752     -27.724      52.226
  O       81.028     -21.086      52.243
  O       82.614     -22.461      53.728
  H       78.538     -26.688      54.737
  H       81.326     -20.386      52.854
  H       77.890     -29.771      55.728
  H       81.388     -27.429      50.863
  H       77.906     -27.009      51.678
  H       79.797     -25.337      53.459
  H       78.295     -23.470      52.899
  H       78.226     -24.228      50.209
  H       80.681     -23.708      50.032
  H       81.508     -32.258      54.813
  H       82.339     -31.537      53.436
  H       79.764     -22.458      50.844
  P       75.759     -23.449      52.306
  C       74.604     -24.559      54.308
  O       75.419     -23.489      53.875
  O       74.432     -24.097      51.683
  O       76.135     -22.133      51.713
  H       74.272     -24.987      52.044
  H       74.518     -24.514      55.397
  H       75.052     -25.516      54.027
  H       73.606     -24.470      53.871
  H       84.247     -23.298      49.933
  H       82.837     -24.192      50.451
  H       84.148     -23.902      51.570

 3  4  5  6  7  8  9  10  11  12  22  25  29  30  31  32 0
 6-311+G(2d,p)
 ****
 33  36  37 0
 6-311+G(2d,p)
 ****
 1  2  13  14  15  16  17  18  19  20  21  23  24  26 0
 3-21G
 ****
 27  28  34  35  38  39  40  41  42  43  44  45  46  47  48 0
 3-21G
 ****


