%nproc=1
%NoSave
%Mem=1900MB
#P OB98/GEN NMR

erre ene a

0 1
  C      230.466    -254.754    1517.680
  O      231.384    -255.656    1518.270
  H      230.131    -255.169    1516.729
  H      230.954    -253.795    1517.483
  H      229.593    -254.608    1518.328
  P      231.921    -255.367    1519.755
  C      233.324    -253.462    1520.811
  O      233.037    -254.209    1519.625
  C      234.257    -252.309    1520.451
  O      233.518    -251.236    1519.820
  C      234.914    -251.670    1521.695
  O      235.973    -252.469    1522.166
  C      235.340    -250.327    1521.131
  O      236.557    -250.449    1520.372
  C      234.153    -249.995    1520.178
  N      233.197    -249.057    1520.784
  C      233.714    -247.852    1521.222
  O      234.915    -247.567    1521.162
  N      232.818    -246.966    1521.781
  C      231.491    -247.251    1522.025
  O      230.739    -246.464    1522.588
  C      231.001    -248.544    1521.552
  C      231.865    -249.389    1520.972
  O      232.333    -256.563    1520.540
  O      230.702    -254.589    1520.446
  H      237.242    -250.735    1521.026
  H      230.240    -255.213    1521.059
  H      233.165    -246.090    1522.117
  H      229.958    -248.784    1521.720
  H      231.527    -250.353    1520.611
  H      234.528    -249.551    1519.240
  H      235.502    -249.585    1521.902
  H      234.157    -251.496    1522.491
  H      235.018    -252.665    1519.758
  H      233.826    -254.132    1521.519
  H      232.386    -253.120    1521.239
  P      236.485    -252.294    1523.679
  C      237.150    -250.325    1525.174
  O      237.050    -250.807    1523.850
  O      237.390    -253.375    1524.163
  O      235.121    -252.273    1524.539
  H      235.130    -253.025    1525.179
  H      237.537    -249.328    1525.162
  H      237.807    -250.956    1525.735
  H      236.181    -250.326    1525.628

 6  7  8  9  10  11  12  13  14  15  16  26  31  32  33  34  35 0
 6-311+G(2d,p)
 ****
 36  37 0
 6-311+G(2d,p)
 ****
 1  2  3  4  5  17  18  19  20  21  22  23  24  25 0
 3-21G
 ****
 27  28  29  30  38  39  40  41  42  43  44  45 0
 3-21G
 ****


