%nproc=1
%NoSave
%Mem=1900MB
#P OB98/GEN NMR

erre ene a

0 1
  C      349.591    -300.405    -443.998
  O      349.916    -301.599    -444.715
  P      351.207    -302.438    -444.276
  C      350.023    -303.689    -442.368
  O      351.075    -302.795    -442.721
  C      350.550    -304.834    -441.493
  O      351.044    -304.342    -440.223
  C      349.491    -305.862    -441.141
  O      349.206    -306.677    -442.263
  C      350.134    -306.560    -439.959
  O      351.068    -307.560    -440.391
  C      350.878    -305.403    -439.253
  N      350.208    -304.929    -438.049
  C      350.126    -305.852    -436.994
  O      350.576    -306.991    -437.124
  N      349.531    -305.452    -435.823
  C      349.056    -304.254    -435.717
  N      348.475    -303.916    -434.534
  C      349.110    -303.270    -436.810
  C      349.687    -303.670    -437.942
  O      352.521    -301.860    -444.693
  O      350.964    -303.858    -444.985
  H      350.572    -308.165    -440.988
  H      351.833    -304.260    -445.199
  H      348.688    -302.279    -436.667
  H      349.765    -303.002    -438.786
  H      351.891    -305.714    -438.970
  H      349.394    -307.075    -439.329
  H      348.567    -305.357    -440.814
  H      351.381    -305.317    -442.020
  H      348.443    -304.627    -433.806
  H      349.574    -304.100    -443.276
  H      348.111    -302.988    -434.333
  H      349.232    -303.124    -441.852
  P      347.797    -306.469    -443.006
  C      348.872    -305.157    -444.974
  O      347.932    -305.152    -443.922
  O      346.830    -305.989    -441.819
  O      347.238    -307.669    -443.700
  H      345.925    -306.318    -441.975
  H      348.616    -304.359    -445.681
  H      348.843    -306.115    -445.518
  H      349.873    -304.992    -444.591
  H      348.707    -299.968    -444.414
  H      350.402    -299.711    -444.075
  H      349.421    -300.642    -442.969

 3  4  5  6  7  8  9  10  11  12  13  23  27  28  29  30  32 0
 6-311+G(2d,p)
 ****
 34  35 0
 6-311+G(2d,p)
 ****
 1  2  14  15  16  17  18  19  20  21  22  24  25  26 0
 3-21G
 ****
 31  33  36  37  38  39  40  41  42  43  44  45  46 0
 3-21G
 ****


