%nproc=1
%NoSave
%Mem=1900MB
#P OB98/GEN NMR

erre ene a

0 1
  C      -85.559     354.561      71.819
  O      -84.284     354.628      71.215
  H      -86.292     354.280      71.057
  H      -85.844     355.533      72.232
  H      -85.569     353.802      72.605
  P      -83.047     355.136      72.103
  C      -82.785     356.906      70.228
  O      -82.135     355.965      71.070
  C      -82.066     356.995      68.882
  O      -80.688     357.391      69.058
  C      -81.996     355.687      68.104
  O      -83.231     355.315      67.512
  C      -80.940     356.047      67.075
  O      -81.524     356.888      66.060
  C      -79.933     356.842      67.941
  N      -78.827     356.018      68.429
  C      -77.569     356.261      67.863
  O      -77.426     357.125      66.999
  N      -76.504     355.488      68.263
  C      -76.682     354.545      69.135
  N      -75.604     353.779      69.461
  C      -77.987     354.270      69.771
  C      -79.004     355.031      69.374
  O      -82.328     354.092      72.896
  O      -83.660     356.310      73.003
  H      -80.796     357.191      65.490
  H      -82.935     356.651      73.582
  H      -78.082     353.468      70.488
  H      -79.998     354.877      69.781
  H      -79.522     357.690      67.381
  H      -80.514     355.177      66.566
  H      -81.610     354.878      68.735
  H      -82.556     357.786      68.298
  H      -74.739     353.971      68.975
  H      -82.787     357.876      70.738
  H      -75.715     352.873      69.907
  H      -83.819     356.598      70.045
  P      -83.766     353.821      67.761
  C      -83.388     353.274      65.239
  O      -84.280     353.277      66.342
  O      -85.113     354.059      68.589
  O      -82.815     352.900      68.461
  H      -84.950     354.005      69.551
  H      -83.888     352.883      64.377
  H      -82.540     352.663      65.468
  H      -83.064     354.274      65.040

 6  7  8  9  10  11  12  13  14  15  16  26  30  31  32  33  35 0
 6-311+G(2d,p)
 ****
 37  38 0
 6-311+G(2d,p)
 ****
 1  2  3  4  5  17  18  19  20  21  22  23  24  25 0
 3-21G
 ****
 27  28  29  34  36  39  40  41  42  43  44  45  46 0
 3-21G
 ****


