%nproc=1
%NoSave
%Mem=1900MB
#P OB98/GEN NMR

erre ene a

0 1
  C       28.543     233.471    -428.722
  O       29.692     232.943    -428.090
  H       28.859     234.028    -429.612
  H       28.017     234.154    -428.046
  H       27.875     232.661    -429.031
  P       29.451     232.180    -426.697
  C       28.379     233.098    -424.502
  O       29.149     233.375    -425.659
  C       28.062     234.398    -423.768
  O       27.241     235.259    -424.590
  C       27.283     234.217    -422.467
  O       28.094     233.785    -421.386
  C       26.781     235.647    -422.265
  O       27.858     236.471    -421.806
  C       26.353     236.012    -423.707
  N       24.954     235.689    -423.991
  C       23.987     236.510    -423.385
  O       24.329     237.446    -422.656
  N       22.666     236.224    -423.595
  C       22.317     235.235    -424.360
  N       20.983     235.004    -424.521
  C       23.291     234.350    -425.015
  C       24.576     234.631    -424.791
  O       30.925     231.713    -426.277
  O       28.436     231.087    -426.712
  H       27.530     237.387    -421.789
  H       30.919     231.359    -425.343
  H       22.959     233.517    -425.625
  H       25.359     234.020    -425.245
  H       26.523     237.075    -423.904
  H       25.986     235.716    -421.526
  H       26.422     233.553    -422.605
  H       29.008     234.929    -423.593
  H       20.337     235.587    -424.004
  H       28.960     232.428    -423.853
  H       20.619     234.168    -424.964
  H       27.448     232.595    -424.778
  P       27.332     233.306    -420.045
  C       25.288     234.291    -418.783
  O       26.455     234.549    -419.541
  O       28.515     233.230    -418.971
  O       26.597     232.003    -420.175
  H       28.363     232.506    -418.331
  H       24.818     235.217    -418.525
  H       25.552     233.764    -417.890
  H       24.611     233.697    -419.361

 6  7  8  9  10  11  12  13  14  15  16  26  30  31  32  33  35 0
 6-311+G(2d,p)
 ****
 37  38 0
 6-311+G(2d,p)
 ****
 1  2  3  4  5  17  18  19  20  21  22  23  24  25 0
 3-21G
 ****
 27  28  29  34  36  39  40  41  42  43  44  45  46 0
 3-21G
 ****


