%nproc=1
%NoSave
%Mem=1900MB
#P OB98/GEN NMR

erre ene a

0 1
  C       64.496      93.838     346.506
  O       63.607      93.294     347.480
  P       63.676      93.600     349.044
  C       61.231      94.262     349.724
  O       62.245      93.269     349.680
  C       59.810      93.678     349.642
  O       59.640      92.989     348.376
  C       59.597      92.629     350.733
  O       59.229      93.028     352.042
  C       58.654      91.609     350.110
  O       57.282      91.869     350.422
  C       58.902      91.776     348.610
  N       58.770      86.813     347.363
  C       57.835      87.566     348.043
  N       56.741      86.913     348.493
  N       57.964      88.845     348.274
  C       59.141      89.357     347.847
  C       60.156      88.707     347.182
  C       59.976      87.304     346.880
  O       60.770      86.592     346.273
  N       61.210      89.547     346.930
  C       60.845      90.698     347.461
  N       59.589      90.635     348.026
  O       64.298      94.901     349.420
  O       64.625      92.424     349.609
  H       57.187      91.853     351.389
  H       65.117      92.803     350.366
  H       58.607      85.836     347.192
  H       61.441      91.601     347.458
  H       57.954      91.875     348.062
  H       58.871      90.603     350.487
  H       56.639      85.909     348.452
  H       60.551      92.103     350.862
  H       56.162      87.407     349.173
  H       59.061      94.473     349.652
  H       61.415      94.941     348.885
  H       61.329      94.858     350.633
  P       59.754      92.386     353.412
  C       60.642      94.650     354.220
  O       59.807      93.544     354.515
  O       61.305      92.097     353.134
  O       59.048      91.137     353.834
  H       61.659      91.477     353.797
  H       60.838      95.203     355.142
  H       60.140      95.310     353.508
  H       61.600      94.315     353.797
  H       64.230      93.472     345.536
  H       65.499      93.544     346.735
  H       64.426      94.906     346.516

 3  4  5  6  7  8  9  10  11  12  23  26  30  31 0
 6-311+G(2d,p)
 ****
 33  35  36  37  38 0
 6-311+G(2d,p)
 ****
 1  2  13  14  15  16  17  18  19  20  21  22  24  25 0
 3-21G
 ****
 27  28  29  32  34  39  40  41  42  43  44  45  46  47  48  49 0
 3-21G
 ****


