%nproc=1
%NoSave
%Mem=1900MB
#P OB98/GEN NMR

erre ene a

0 1
  C       -5.724     476.510    -684.266
  O       -5.895     475.330    -685.023
  H       -5.558     476.259    -683.214
  H       -4.849     477.048    -684.639
  H       -6.603     477.152    -684.360
  P       -7.110     474.369    -684.605
  C       -7.758     473.799    -687.050
  O       -7.300     473.306    -685.797
  C       -7.344     472.846    -688.169
  O       -5.899     472.886    -688.293
  C       -7.760     471.383    -687.946
  O       -8.575     470.930    -689.036
  C       -6.457     470.606    -687.967
  O       -6.550     469.363    -688.664
  C       -5.485     471.563    -688.655
  N       -1.333     468.760    -689.589
  C       -2.388     469.072    -690.360
  N       -3.414     469.912    -690.091
  C       -3.257     470.480    -688.880
  C       -2.220     470.273    -687.990
  C       -1.232     469.348    -688.373
  N       -0.184     468.990    -687.554
  N       -2.411     471.021    -686.841
  C       -3.563     471.634    -687.021
  N       -4.123     471.318    -688.237
  O       -8.395     475.321    -684.739
  O       -7.009     473.776    -683.243
  H       -5.639     469.054    -688.808
  H       -8.946     475.243    -683.942
  H       -2.432     468.578    -691.331
  H       -4.064     472.268    -686.298
  H       -5.530     471.478    -689.749
  H       -6.147     470.400    -686.937
  H       -8.290     471.230    -686.998
  H       -7.759     473.221    -689.111
  H       -7.314     474.783    -687.236
  H        0.413     468.239    -687.867
  H       -0.165     469.349    -686.611
  H       -8.849     473.910    -687.015
  P      -10.158     470.838    -688.765
  C      -10.402     471.247    -691.323
  O      -10.873     470.557    -690.173
  O      -10.556     472.358    -688.444
  O      -10.529     469.914    -687.651
  H      -11.344     472.386    -687.870
  H      -10.977     470.953    -692.176
  H       -9.372     471.006    -691.487
  H      -10.502     472.302    -691.172

 6  7  8  9  10  11  12  13  14  15  25  28  32  33  34  35 0
 6-311+G(2d,p)
 ****
 36  39  40 0
 6-311+G(2d,p)
 ****
 1  2  3  4  5  16  17  18  19  20  21  22  23  24 0
 3-21G
 ****
 26  27  29  30  31  37  38  41  42  43  44  45  46  47  48 0
 3-21G
 ****


