%nproc=1
%NoSave
%Mem=1900MB
#P OB98/GEN NMR

erre ene a

0 1
  C      483.123     440.193      61.139
  O      481.784     439.841      61.501
  P      481.539     438.334      62.001
  C      479.368     437.481      60.880
  O      479.952     438.064      62.032
  C      478.110     438.247      60.446
  O      477.073     438.169      61.471
  C      478.353     439.732      60.173
  O      477.475     440.137      59.119
  C      477.901     440.394      61.462
  O      477.624     441.781      61.271
  C      476.700     439.517      61.811
  N      474.117     442.269      65.251
  C      474.297     442.423      63.921
  N      475.022     441.661      63.078
  C      475.558     440.613      63.735
  C      475.472     440.330      65.088
  C      474.708     441.216      65.865
  N      474.549     441.076      67.223
  N      476.202     439.196      65.395
  C      476.718     438.808      64.248
  N      476.338     439.615      63.209
  O      481.944     438.397      63.550
  O      482.345     437.314      61.271
  H      476.772     441.860      60.800
  H      482.787     437.936      63.695
  H      473.799     443.283      63.479
  H      477.380     437.963      64.114
  H      475.805     439.782      61.229
  H      478.686     440.300      62.222
  H      479.389     439.986      59.917
  H      477.707     437.768      59.546
  H      479.100     436.440      61.080
  H      474.012     441.778      67.715
  H      475.024     440.327      67.703
  H      480.109     437.450      60.074
  P      478.160     440.812      57.836
  C      477.680     443.295      58.403
  O      477.380     442.185      57.585
  O      477.697     439.879      56.620
  O      479.649     440.916      57.925
  H      478.339     439.931      55.892
  H      477.693     444.196      57.785
  H      478.649     443.190      58.904
  H      476.895     443.404      59.161
  H      483.151     441.216      60.826
  H      483.452     439.566      60.337
  H      483.767     440.061      61.983

 3  4  5  6  7  8  9  10  11  12  22  25  29  30  31  32 0
 6-311+G(2d,p)
 ****
 33  36  37 0
 6-311+G(2d,p)
 ****
 1  2  13  14  15  16  17  18  19  20  21  23  24  26 0
 3-21G
 ****
 27  28  34  35  38  39  40  41  42  43  44  45  46  47  48 0
 3-21G
 ****


