%nproc=1
%NoSave
%Mem=1900MB
#P OB98/GEN NMR

erre ene a

0 1
  C      263.289     108.887     -18.049
  O      262.293     107.888     -17.956
  H      263.563     109.206     -17.040
  H      262.907     109.750     -18.600
  H      264.177     108.489     -18.548
  P      261.713     107.332     -19.345
  C      259.418     108.449     -18.893
  O      260.120     107.245     -19.166
  C      257.914     108.233     -19.034
  O      257.192     109.439     -18.701
  C      257.466     107.826     -20.434
  O      257.614     106.429     -20.626
  C      256.009     108.266     -20.417
  O      255.184     107.301     -19.730
  C      256.079     109.580     -19.627
  N      253.782     112.816     -22.748
  C      253.313     111.659     -22.160
  N      252.050     111.290     -22.471
  N      254.019     110.917     -21.348
  C      255.282     111.373     -21.174
  C      255.866     112.502     -21.700
  C      255.054     113.342     -22.553
  O      255.385     114.420     -23.037
  N      257.162     112.635     -21.272
  C      257.370     111.572     -20.518
  N      256.260     110.772     -20.432
  O      262.166     105.795     -19.350
  O      262.191     108.038     -20.568
  H      255.526     107.174     -18.828
  H      262.411     105.544     -20.261
  H      253.184     113.362     -23.340
  H      258.296     111.344     -20.008
  H      255.179     109.744     -19.025
  H      255.604     108.353     -21.426
  H      251.576     111.643     -23.290
  H      258.007     108.391     -21.201
  H      251.735     110.404     -22.098
  H      257.621     107.473     -18.300
  H      259.744     109.217     -19.602
  H      259.651     108.779     -17.876
  P      258.723     105.921     -21.665
  C      256.776     105.514     -23.335
  O      257.986     105.024     -22.774
  O      259.552     104.853     -20.808
  O      259.617     106.991     -22.195
  H      260.413     105.231     -20.551
  H      256.406     104.812     -24.053
  H      256.960     106.452     -23.815
  H      256.051     105.646     -22.559

 6  7  8  9  10  11  12  13  14  15  26  29  33  34 0
 6-311+G(2d,p)
 ****
 36  38  39  40  41 0
 6-311+G(2d,p)
 ****
 1  2  3  4  5  16  17  18  19  20  21  22  23  24  25 0
 3-21G
 ****
 27  28  30  31  32  35  37  42  43  44  45  46  47 0
 3-21G
 ****
 48  49 0
 3-21G
 ****


