%nproc=1
%NoSave
%Mem=1900MB
#P OB98/GEN NMR

erre ene a

0 1
  C     -198.575    -145.118    -266.726
  O     -198.045    -143.952    -267.325
  H     -198.964    -145.768    -267.511
  H     -199.391    -144.858    -266.045
  H     -197.789    -145.649    -266.182
  P     -197.451    -142.841    -266.332
  C     -196.263    -141.907    -268.419
  O     -197.079    -141.607    -267.293
  C     -195.676    -140.623    -269.009
  O     -196.760    -139.833    -269.561
  C     -194.946    -139.758    -267.979
  O     -193.796    -139.173    -268.588
  C     -195.953    -138.671    -267.647
  O     -195.332    -137.478    -267.180
  C     -196.695    -138.521    -268.976
  N     -199.438    -134.228    -268.683
  C     -198.150    -134.457    -269.017
  N     -197.503    -135.641    -269.087
  C     -198.338    -136.656    -268.810
  C     -199.671    -136.578    -268.450
  C     -200.226    -135.287    -268.382
  N     -201.529    -135.045    -268.018
  N     -200.180    -137.838    -268.199
  C     -199.172    -138.663    -268.420
  N     -198.034    -137.993    -268.775
  O     -196.357    -143.299    -265.428
  O     -198.774    -142.321    -265.598
  H     -195.972    -136.743    -267.266
  H     -199.504    -142.187    -266.232
  H     -197.559    -133.575    -269.257
  H     -199.213    -139.744    -268.323
  H     -196.180    -137.850    -269.671
  H     -196.632    -139.028    -266.862
  H     -194.649    -140.320    -267.094
  H     -195.018    -140.889    -269.846
  H     -196.850    -142.425    -269.184
  H     -201.849    -134.089    -268.008
  H     -202.138    -135.822    -267.807
  H     -195.461    -142.572    -268.086
  P     -192.390    -139.930    -268.453
  C     -191.590    -138.634    -270.535
  O     -191.271    -139.072    -269.219
  O     -192.404    -141.391    -268.762
  O     -192.012    -139.681    -266.913
  H     -191.580    -140.483    -266.561
  H     -190.769    -138.077    -270.934
  H     -192.461    -138.013    -270.503
  H     -191.781    -139.483    -271.157

 6  7  8  9  10  11  12  13  14  15  25  28  32  33  34  35 0
 6-311+G(2d,p)
 ****
 36  39  40 0
 6-311+G(2d,p)
 ****
 1  2  3  4  5  16  17  18  19  20  21  22  23  24 0
 3-21G
 ****
 26  27  29  30  31  37  38  41  42  43  44  45  46  47 0
 3-21G
 ****
 48 0
 3-21G
 ****


