%nproc=1
%NoSave
%Mem=1900MB
#P OB98/GEN NMR

erre ene a

0 1
  C      -61.702    -161.909    -199.561
  O      -63.043    -162.138    -199.182
  H      -61.340    -161.009    -199.052
  H      -61.643    -161.747    -200.641
  H      -61.069    -162.753    -199.275
  P      -63.697    -163.527    -199.657
  C      -64.218    -164.595    -201.969
  O      -63.907    -163.411    -201.246
  C      -64.557    -164.254    -203.416
  O      -65.859    -163.626    -203.495
  C      -63.579    -163.297    -204.081
  O      -62.428    -163.971    -204.574
  C      -64.435    -162.769    -205.223
  O      -64.501    -163.755    -206.276
  C      -65.806    -162.619    -204.548
  N      -68.142    -158.161    -205.153
  C      -68.123    -159.272    -205.978
  N      -68.817    -159.181    -207.131
  N      -67.476    -160.375    -205.696
  C      -66.818    -160.320    -204.515
  C      -66.765    -159.280    -203.610
  C      -67.490    -158.071    -203.930
  O      -67.562    -157.065    -203.225
  N      -66.004    -159.603    -202.519
  C      -65.580    -160.826    -202.766
  N      -66.039    -161.306    -203.968
  O      -65.194    -163.447    -199.085
  O      -63.003    -164.760    -199.188
  H      -63.641    -163.734    -206.732
  H      -65.475    -164.343    -198.811
  H      -68.649    -157.332    -205.423
  H      -64.944    -161.406    -202.113
  H      -66.634    -162.821    -205.237
  H      -64.034    -161.856    -205.664
  H      -69.293    -158.342    -207.430
  H      -63.312    -162.464    -203.415
  H      -68.843    -159.992    -207.738
  H      -64.617    -165.198    -203.980
  H      -65.081    -165.086    -201.500
  H      -63.358    -165.273    -201.933
  P      -60.990    -163.339    -204.219
  C      -59.855    -161.097    -204.901
  O      -60.789    -162.121    -205.243
  O      -59.969    -164.449    -204.761
  O      -60.773    -163.028    -202.778
  H      -59.112    -164.370    -204.298
  H      -59.833    -160.361    -205.677
  H      -58.881    -161.526    -204.789
  H      -60.151    -160.637    -203.981

 6  7  8  9  10  11  12  13  14  15  26  29  33  34 0
 6-311+G(2d,p)
 ****
 36  38  39  40  41 0
 6-311+G(2d,p)
 ****
 1  2  3  4  5  16  17  18  19  20  21  22  23  24  25 0
 3-21G
 ****
 27  28  30  31  32  35  37  42  43  44  45  46  47 0
 3-21G
 ****
 48  49 0
 3-21G
 ****


