%nproc=1
%NoSave
%Mem=1900MB
#P OB98/GEN NMR

erre ene a

0 1
  C     -319.739     229.976     423.513
  O     -318.580     229.169     423.413
  H     -319.659     230.587     424.416
  H     -320.626     229.342     423.591
  H     -319.821     230.629     422.642
  P     -318.405     228.315     422.068
  C     -316.523     228.067     420.252
  O     -316.932     228.621     421.498
  C     -315.680     229.088     419.486
  O     -316.485     230.182     419.010
  C     -314.612     229.760     420.326
  O     -313.546     228.900     420.656
  C     -314.216     230.910     419.404
  O     -313.334     230.456     418.369
  C     -315.595     231.316     418.816
  N     -316.121     232.529     419.421
  C     -315.225     233.605     419.510
  O     -314.076     233.491     419.083
  N     -315.645     234.765     420.104
  C     -316.858     234.861     420.551
  N     -317.219     236.033     421.143
  C     -317.848     233.762     420.457
  C     -317.415     232.638     419.888
  O     -319.349     229.088     421.035
  O     -318.691     226.855     422.203
  H     -312.527     230.138     418.818
  H     -319.161     230.039     420.971
  H     -318.856     233.886     420.832
  H     -318.068     231.782     419.778
  H     -315.514     231.474     417.733
  H     -313.699     231.703     419.945
  H     -315.061     230.196     421.231
  H     -315.243     228.581     418.610
  H     -316.508     236.756     421.208
  H     -317.389     227.760     419.658
  H     -318.125     236.213     421.551
  H     -315.934     227.172     420.462
  P     -312.549     229.256     421.862
  C     -311.362     227.927     423.720
  O     -312.373     227.909     422.715
  O     -312.925     230.456     422.660
  O     -311.127     229.383     421.134
  H     -310.832     228.570     420.679
  H     -311.338     226.981     424.219
  H     -311.578     228.699     424.429
  H     -310.411     228.115     423.266

 6  7  8  9  10  11  12  13  14  15  16  26  30  31  32  33  35 0
 6-311+G(2d,p)
 ****
 37  38 0
 6-311+G(2d,p)
 ****
 1  2  3  4  5  17  18  19  20  21  22  23  24  25 0
 3-21G
 ****
 27  28  29  34  36  39  40  41  42  43  44  45  46 0
 3-21G
 ****


