%nproc=1
%NoSave
%Mem=1900MB
#P OB98/GEN NMR

erre ene a

0 1
  C     -899.054    1008.466      14.468
  O     -898.404    1008.192      13.239
  P     -898.074    1006.649      12.883
  C     -895.504    1007.284      12.873
  O     -896.544    1006.438      13.359
  C     -894.124    1006.589      13.024
  O     -893.774    1006.587      14.425
  C     -894.124    1005.125      12.602
  O     -894.074    1004.987      11.179
  C     -892.874    1004.628      13.342
  O     -891.684    1004.988      12.605
  C     -892.964    1005.414      14.650
  N     -893.494    1004.623      15.759
  C     -892.574    1004.274      16.747
  O     -891.384    1004.609      16.754
  N     -893.104    1003.523      17.799
  C     -894.364    1003.026      17.876
  O     -894.764    1002.299      18.786
  C     -895.284    1003.385      16.783
  C     -894.814    1004.160      15.800
  O     -897.994    1006.712      11.298
  O     -899.064    1005.696      13.462
  H     -897.754    1007.599      10.980
  H     -890.934    1004.528      13.083
  H     -892.454    1003.253      18.540
  H     -896.294    1003.029      16.807
  H     -895.464    1004.443      14.968
  H     -891.954    1005.772      14.961
  H     -892.854    1003.540      13.464
  H     -894.994    1004.607      12.988
  H     -893.394    1007.170      12.459
  H     -895.494    1008.211      13.421
  H     -895.694    1007.505      11.810
  P     -894.334    1003.513      10.606
  C     -892.124    1003.571       9.179
  O     -892.884    1002.936      10.183
  O     -895.044    1003.861       9.218
  O     -895.144    1002.648      11.526
  H     -894.634    1004.605       8.737
  H     -891.084    1003.303       9.307
  H     -892.184    1004.665       9.288
  H     -892.494    1003.284       8.196
  H     -899.205    1009.521      14.564
  H     -898.448    1008.117      15.278
  H     -900.000    1007.967      14.490

 3  4  5  6  7  8  9  10  11  12  13  24  28  29  30  31  32 0
 6-311+G(2d,p)
 ****
 33  34 0
 6-311+G(2d,p)
 ****
 1  2  14  15  16  17  18  19  20  21  22  23  25  26  27 0
 3-21G
 ****
 35  36  37  38  39  40  41  42  43  44  45 0
 3-21G
 ****


