%nproc=1
%NoSave
%Mem=1900MB
#P OB98/GEN NMR

erre ene a

0 1
  C      -63.142     -17.500     -16.456
  O      -62.113     -17.764     -17.399
  P      -60.792     -18.506     -16.864
  C      -58.869     -17.771     -15.286
  O      -59.909     -17.363     -16.166
  C      -58.020     -16.577     -14.871
  O      -57.291     -16.077     -16.008
  C      -58.812     -15.390     -14.342
  O      -59.178     -15.561     -12.981
  C      -57.797     -14.267     -14.499
  O      -56.885     -14.279     -13.386
  C      -57.068     -14.660     -15.794
  N      -56.991     -10.239     -18.259
  C      -56.373     -10.606     -17.080
  N      -55.602      -9.667     -16.488
  N      -56.500     -11.784     -16.531
  C      -57.267     -12.632     -17.255
  C      -57.933     -12.385     -18.434
  C      -57.826     -11.061     -19.006
  O      -58.403     -10.658     -20.012
  N      -58.598     -13.501     -18.874
  C      -58.307     -14.429     -17.986
  N      -57.526     -13.942     -16.966
  O      -59.986     -18.823     -18.210
  O      -61.037     -19.736     -16.060
  H      -56.302     -13.502     -13.485
  H      -59.395     -19.589     -18.071
  H      -56.845      -9.324     -18.647
  H      -58.637     -15.457     -18.040
  H      -55.985     -14.518     -15.700
  H      -58.259     -13.275     -14.523
  H      -55.362      -8.793     -16.928
  H      -59.685     -15.187     -14.971
  H      -55.113      -9.930     -15.643
  H      -57.291     -16.918     -14.124
  H      -58.231     -18.500     -15.796
  H      -59.315     -18.250     -14.409
  P      -60.527     -14.829     -12.504
  C      -61.321     -12.356     -12.514
  O      -60.262     -13.267     -12.736
  O      -60.491     -14.997     -10.914
  O      -61.773     -15.386     -13.104
  H      -61.398     -14.970     -10.551
  H      -61.945     -12.665     -11.670
  H      -61.936     -12.286     -13.415
  H      -60.900     -11.373     -12.294
  H      -63.956     -17.006     -16.945
  H      -62.760     -16.873     -15.678
  H      -63.485     -18.422     -16.035

 3  4  5  6  7  8  9  10  11  12  23  26  30  31  33  0
 6-311+G(2d,p)
 ****
 35  36  37  38 0
 6-311+G(2d,p)
 ****
 1  2  13  14  15  16  17  18  19  20  21  22  24  25  27  28  29 0
 3-21G
 ****
 32  34  39  40  41  42  43  44  45  46  47  48  49 0
 3-21G
 ****


