%nproc=1
%NoSave
%Mem=1900MB
#P OB98/GEN NMR

erre ene a

0 1
  C      386.685    -898.920     555.652
  O      387.359    -898.580     554.447
  P      387.549    -897.050     554.037
  C      388.940    -895.730     552.321
  O      388.796    -896.960     553.028
  C      390.424    -895.490     551.992
  O      391.159    -895.180     553.200
  C      391.126    -896.680     551.372
  O      390.780    -896.810     550.002
  C      392.586    -896.310     551.624
  O      393.059    -895.390     550.632
  C      392.512    -895.630     553.000
  N      396.510    -897.460     555.581
  C      396.430    -896.730     554.441
  N      395.316    -896.310     553.801
  C      394.207    -896.750     554.424
  C      394.133    -897.540     555.565
  C      395.367    -897.870     556.171
  N      395.454    -898.560     557.366
  N      392.822    -897.800     555.884
  C      392.113    -897.190     554.951
  N      392.909    -896.500     554.086
  O      387.588    -896.080     555.169
  O      386.292    -896.750     553.080
  H      392.999    -895.820     549.764
  H      385.753    -896.040     553.471
  H      397.373    -896.430     554.016
  H      391.047    -897.230     554.869
  H      393.156    -894.730     553.038
  H      393.246    -897.180     551.589
  H      390.881    -897.590     551.929
  H      390.472    -894.600     551.333
  H      388.556    -894.920     552.939
  H      396.388    -898.630     557.782
  H      394.637    -898.600     557.960
  H      388.347    -895.780     551.395
  P      391.009    -898.200     549.253
  C      390.587    -898.990     546.851
  O      390.145    -898.150     547.896
  O      390.805    -899.430     550.084
  O      392.509    -898.100     548.724
  H      392.924    -898.990     548.710
  H      391.464    -898.560     546.350
  H      389.773    -899.100     546.123
  H      390.859    -900.000     547.234
  H      386.656    -899.985     555.756
  H      385.686    -898.537     555.622
  H      387.206    -898.495     556.484

 3  4  5  6  7  8  9  10  11  12  22  25  29  30  31  32 0
 6-311+G(2d,p)
 ****
 33  36  37 0
 6-311+G(2d,p)
 ****
 1  2  13  14  15  16  17  18  19  20  21  23  24  26 0
 3-21G
 ****
 27  28  34  35  38  39  40  41  42  43  44  45  46  47  48 0
 3-21G
 ****


