%nproc=1
%NoSave
%Mem=1900MB
#P OB98/GEN NMR

erre ene a

0 1
  C      -89.511     389.393    -374.074
  O      -89.408     388.204    -374.835
  H      -88.877     389.298    -373.191
  H      -90.545     389.545    -373.754
  H      -89.172     390.248    -374.666
  P      -90.254     388.151    -376.198
  C      -88.232     388.562    -377.763
  O      -89.431     389.086    -377.210
  C      -87.996     389.128    -379.164
  O      -89.121     388.855    -380.019
  C      -87.809     390.643    -379.200
  O      -86.483     390.996    -378.848
  C      -88.101     390.929    -380.665
  O      -86.939     390.615    -381.462
  C      -89.236     389.937    -380.983
  N      -93.490     391.026    -383.639
  C      -92.264     390.628    -384.036
  N      -91.167     390.399    -383.277
  C      -91.430     390.621    -381.979
  C      -92.636     391.032    -381.426
  C      -93.706     391.225    -382.317
  N      -94.961     391.624    -381.906
  N      -92.531     391.153    -380.058
  C      -91.293     390.778    -379.782
  N      -90.580     390.478    -380.915
  O      -91.710     388.436    -376.066
  O      -89.892     386.680    -376.726
  H      -86.182     391.089    -381.077
  H      -88.957     386.474    -376.549
  H      -92.140     390.471    -385.104
  H      -90.881     390.685    -378.788
  H      -89.123     389.500    -381.980
  H      -88.334     391.980    -380.842
  H      -88.550     391.153    -378.581
  H      -87.126     388.614    -379.591
  H      -88.284     387.467    -377.812
  H      -95.614     391.904    -382.620
  H      -95.082     391.888    -380.940
  H      -87.414     388.837    -377.101
  P      -86.145     392.464    -378.300
  C      -84.627     391.548    -376.435
  O      -85.797     392.299    -376.738
  O      -87.172     393.502    -378.593
  O      -84.730     392.824    -378.948
  H      -84.702     393.767    -379.196
  H      -84.496     391.505    -375.374
  H      -83.776     392.019    -376.881
  H      -84.730     390.556    -376.823

 6  7  8  9  10  11  12  13  14  15  25  28  32  33  34  35 0
 6-311+G(2d,p)
 ****
 36  39  40 0
 6-311+G(2d,p)
 ****
 1  2  3  4  5  16  17  18  19  20  21  22  23  24 0
 3-21G
 ****
 26  27  29  30  31  37  38  41  42  43  44  45  46  47 0
 3-21G
 ****
 48 0
 3-21G
 ****


