%nproc=1
%NoSave
%Mem=1900MB
#P OB98/GEN NMR

erre ene a

0 1
  C     -366.081     132.703    -216.128
  O     -366.058     131.640    -217.059
  H     -365.059     132.894    -215.786
  H     -366.697     132.438    -215.264
  H     -366.473     133.608    -216.599
  P     -367.484     131.137    -217.601
  C     -368.535     128.796    -217.124
  O     -367.861     129.932    -216.606
  C     -368.420     127.637    -216.139
  O     -367.054     127.180    -216.048
  C     -368.827     127.990    -214.712
  O     -370.233     128.017    -214.527
  C     -368.179     126.847    -213.952
  O     -368.961     125.650    -214.125
  C     -366.821     126.734    -214.683
  N     -365.764     127.530    -214.056
  C     -364.796     126.826    -213.329
  O     -364.857     125.603    -213.225
  N     -363.796     127.532    -212.703
  C     -363.757     128.825    -212.803
  N     -362.752     129.473    -212.154
  C     -364.746     129.603    -213.573
  C     -365.709     128.903    -214.165
  O     -367.122     130.366    -218.958
  O     -368.536     132.185    -217.751
  H     -368.520     124.948    -213.613
  H     -367.925     129.909    -219.307
  H     -364.677     130.681    -213.618
  H     -366.473     129.408    -214.746
  H     -366.490     125.691    -214.732
  H     -368.107     127.032    -212.879
  H     -368.373     128.931    -214.383
  H     -369.020     126.803    -216.529
  H     -362.126     128.919    -211.583
  H     -368.076     128.527    -218.080
  H     -362.745     130.478    -212.024
  H     -369.592     129.030    -217.289
  P     -370.809     128.909    -213.322
  C     -372.477     128.389    -211.400
  O     -371.453     127.898    -212.256
  O     -372.087     129.615    -213.977
  O     -369.846     129.906    -212.759
  H     -372.177     130.538    -213.670
  H     -372.805     127.605    -210.750
  H     -373.301     128.731    -211.990
  H     -372.095     129.200    -210.816

 6  7  8  9  10  11  12  13  14  15  16  26  30  31  32  33  35 0
 6-311+G(2d,p)
 ****
 37  38 0
 6-311+G(2d,p)
 ****
 1  2  3  4  5  17  18  19  20  21  22  23  24  25 0
 3-21G
 ****
 27  28  29  34  36  39  40  41  42  43  44  45  46 0
 3-21G
 ****


