%nproc=1
%NoSave
%Mem=1900MB
#P OB98/GEN NMR

erre ene a

0 1
  C      -18.223    -427.493     401.066
  O      -17.707    -426.948     399.870
  H      -18.848    -428.359     400.818
  H      -18.847    -426.752     401.585
  H      -17.414    -427.821     401.717
  P      -16.760    -425.659     399.970
  C      -16.906    -423.431     401.278
  O      -17.622    -424.544     400.739
  C      -17.743    -422.167     401.149
  O      -18.990    -422.305     401.859
  C      -17.058    -420.921     401.717
  O      -16.136    -420.392     400.777
  C      -18.270    -420.019     401.928
  O      -18.697    -419.478     400.666
  C      -19.309    -421.024     402.461
  N      -20.677    -418.924     406.870
  C      -20.777    -418.431     405.585
  N      -21.285    -417.184     405.458
  N      -20.411    -419.090     404.516
  C      -19.861    -420.298     404.804
  C      -19.682    -420.887     406.038
  C      -20.151    -420.169     407.207
  O      -20.098    -420.577     408.360
  N      -19.033    -422.084     405.929
  C      -18.847    -422.245     404.635
  N      -19.313    -421.180     403.904
  O      -16.154    -425.176     398.691
  O      -15.650    -426.073     401.043
  H      -19.605    -419.142     400.795
  H      -14.866    -426.454     400.611
  H      -20.962    -418.363     407.653
  H      -18.384    -423.109     404.172
  H      -20.325    -420.763     402.156
  H      -18.066    -419.183     402.594
  H      -21.310    -416.547     406.241
  H      -16.593    -421.116     402.685
  H      -21.320    -416.788     404.532
  H      -17.991    -422.027     400.087
  H      -15.969    -423.341     400.716
  H      -16.667    -423.617     402.329
  P      -14.919    -419.453     401.253
  C      -14.615    -417.832     403.243
  O      -15.535    -418.543     402.422
  O      -14.246    -418.697     400.164
  O      -13.938    -420.429     402.058
  H      -13.269    -420.877     401.480
  H      -15.153    -417.269     403.977
  H      -14.036    -417.167     402.637
  H      -13.964    -418.526     403.733

 6  7  8  9  10  11  12  13  14  15  26  29  33  34 0
 6-311+G(2d,p)
 ****
 36  38  39  40  41 0
 6-311+G(2d,p)
 ****
 1  2  3  4  5  16  17  18  19  20  21  22  23  24  25 0
 3-21G
 ****
 27  28  30  31  32  35  37  42  43  44  45  46  47 0
 3-21G
 ****
 48  49 0
 3-21G
 ****


