%nproc=1
%NoSave
%Mem=1900MB
#P OB98/GEN NMR

erre ene a

0 1
  C      123.977     182.494      42.386
  O      123.590     183.765      42.940
  P      124.704     184.912      43.115
  C      126.633     185.470      44.791
  O      125.406     184.793      44.558
  C      127.304     184.977      46.085
  O      126.453     185.274      47.245
  C      127.596     183.469      46.121
  O      128.792     183.279      46.884
  C      126.398     182.923      46.887
  O      126.624     181.633      47.434
  C      126.216     184.025      47.925
  N      124.898     184.035      48.575
  C      124.642     183.070      49.551
  O      125.435     182.183      49.870
  N      123.411     183.158      50.146
  C      122.420     184.046      49.849
  O      121.330     184.048      50.393
  C      122.740     185.015      48.783
  C      123.943     184.966      48.209
  O      123.808     186.231      43.282
  O      125.649     185.075      41.964
  H      125.833     181.393      47.945
  H      124.167     186.944      42.724
  H      123.213     182.485      50.877
  H      121.976     185.741      48.513
  H      124.202     185.680      47.426
  H      126.994     183.933      48.698
  H      125.540     182.851      46.202
  H      127.705     183.028      45.119
  H      128.235     185.546      46.223
  H      126.443     186.545      44.881
  H      127.298     185.316      43.935
  P      129.925     182.290      46.296
  C      130.176     179.683      46.179
  O      129.344     180.795      46.397
  O      130.997     182.347      47.491
  O      130.474     182.697      44.977
  H      130.594     182.266      48.368
  H      131.163     179.819      46.638
  H      130.288     179.516      45.095
  H      129.710     178.797      46.626
  H      123.123     181.851      42.339
  H      124.726     182.048      43.006
  H      124.369     182.639      41.401

 3  4  5  6  7  8  9  10  11  12  13  23  28  29  30  31  32 0
 6-311+G(2d,p)
 ****
 33  34 0
 6-311+G(2d,p)
 ****
 1  2  14  15  16  17  18  19  20  21  22  24  25  26 0
 3-21G
 ****
 27  35  36  37  38  39  40  41  42  43  44  45 0
 3-21G
 ****


