%nproc=1
%NoSave
%Mem=1900MB
#P OB98/GEN NMR

erre ene a

0 1
  C     -123.394      41.998      15.138
  O     -124.205      40.969      14.608
  H     -122.388      41.900      14.724
  H     -123.338      41.902      16.225
  H     -123.794      42.978      14.869
  P     -125.756      40.984      15.020
  C     -126.438      41.066      12.519
  O     -126.564      40.391      13.763
  C     -126.638      40.097      11.356
  O     -125.432      39.290      11.202
  C     -127.817      39.128      11.536
  O     -128.400      38.896      10.247
  C     -127.137      37.845      11.985
  O     -127.936      36.689      11.748
  C     -125.856      37.914      11.154
  N     -124.388      33.105      11.283
  C     -125.454      33.700      10.637
  N     -126.256      32.890       9.913
  N     -125.713      34.979      10.697
  C     -124.810      35.674      11.429
  C     -123.719      35.204      12.120
  C     -123.459      33.781      12.068
  O     -122.542      33.193      12.634
  N     -123.067      36.225      12.766
  C     -123.762      37.307      12.465
  N     -124.829      37.023      11.657
  O     -126.110      42.544      14.994
  O     -126.074      40.358      16.336
  H     -127.436      35.908      12.065
  H     -126.007      42.928      15.885
  H     -124.242      32.112      11.216
  H     -123.541      38.309      12.805
  H     -126.025      37.643      10.105
  H     -126.911      37.892      13.057
  H     -126.092      31.904       9.784
  H     -128.585      39.475      12.234
  H     -127.018      33.315       9.397
  H     -126.748      40.677      10.433
  H     -125.437      41.505      12.453
  H     -127.183      41.867      12.469
  P     -129.788      38.100      10.182
  C     -131.257      39.977       9.143
  O     -130.652      38.704       8.976
  O     -130.567      38.636      11.476
  O     -129.647      36.614      10.200
  H     -131.191      37.957      11.792
  H     -131.794      40.236       8.255
  H     -130.500      40.710       9.329
  H     -131.933      39.945       9.972

 6  7  8  9  10  11  12  13  14  15  26  29  33  34 0
 6-311+G(2d,p)
 ****
 36  38  39  40  41 0
 6-311+G(2d,p)
 ****
 1  2  3  4  5  16  17  18  19  20  21  22  23  24  25 0
 3-21G
 ****
 27  28  30  31  32  35  37  42  43  44  45  46  47 0
 3-21G
 ****
 48  49 0
 3-21G
 ****


