%nproc=1
%NoSave
%Mem=1900MB
#P OB98/GEN NMR

erre ene a

0 1
  C      877.794    -893.740     698.457
  O      878.162    -894.860     697.685
  P      879.674    -895.050     697.146
  C      878.938    -897.160     695.880
  O      879.535    -895.880     695.783
  C      878.242    -897.520     694.560
  O      876.939    -896.900     694.555
  C      878.931    -897.030     693.294
  O      879.983    -897.880     692.806
  C      877.763    -897.050     692.303
  O      877.540    -898.410     691.857
  C      876.611    -896.560     693.165
  N      873.604    -892.980     691.095
  C      873.546    -894.330     691.074
  N      874.399    -895.230     691.634
  C      875.363    -894.560     692.326
  C      875.532    -893.210     692.447
  C      874.602    -892.370     691.796
  N      874.613    -891.010     691.856
  N      876.639    -892.930     693.222
  C      877.132    -894.110     693.565
  N      876.367    -895.130     693.048
  O      880.622    -895.610     698.165
  O      880.082    -893.580     696.643
  H      876.792    -898.380     691.249
  H      881.060    -893.520     696.556
  H      872.728    -894.760     690.505
  H      877.996    -894.270     694.174
  H      875.667    -897.080     692.926
  H      877.966    -896.450     691.405
  H      879.296    -895.990     693.403
  H      878.103    -898.600     694.521
  H      878.190    -897.130     696.676
  H      873.857    -890.510     691.463
  H      875.286    -890.570     692.507
  H      879.711    -897.910     696.150
  P      881.447    -897.230     692.650
  C      882.242    -899.550     691.737
  O      882.194    -898.140     691.585
  O      882.175    -897.020     693.951
  O      881.143    -895.860     691.851
  H      880.853    -896.000     690.931
  H      882.654    -900.000     690.834
  H      881.216    -899.960     691.884
  H      882.871    -899.820     692.587
  H      876.756    -893.806     698.710
  H      877.968    -892.846     697.895
  H      878.378    -893.717     699.353

 3  4  5  6  7  8  9  10  11  12  22  25  29  30  31  32 0
 6-311+G(2d,p)
 ****
 33  36  37 0
 6-311+G(2d,p)
 ****
 1  2  13  14  15  16  17  18  19  20  21  23  24  26 0
 3-21G
 ****
 27  28  34  35  38  39  40  41  42  43  44  45  46  47  48 0
 3-21G
 ****


