%nproc=1
%NoSave
%Mem=1900MB
#P OB98/GEN NMR

erre ene a

0 1
  C      -11.271     -78.898     170.351
  O      -10.734     -79.918     169.511
  P      -11.731     -80.770     168.585
  C      -10.018     -81.331     166.748
  O      -10.875     -81.852     167.757
  C       -9.272     -82.438     165.988
  O       -8.195     -82.987     166.799
  C      -10.160     -83.615     165.550
  O       -9.668     -84.067     164.284
  C       -9.886     -84.648     166.628
  O      -10.257     -85.960     166.236
  C       -8.386     -84.418     166.856
  N       -7.921     -84.974     168.116
  C       -7.770     -86.360     168.184
  O       -8.125     -87.067     167.241
  N       -7.247     -86.910     169.338
  C       -7.046     -86.153     170.372
  N       -6.511     -86.724     171.484
  C       -7.363     -84.707     170.392
  C       -7.769     -84.189     169.232
  O      -12.685     -79.967     167.764
  O      -12.517     -81.683     169.648
  H       -9.723     -86.224     165.455
  H      -13.430     -81.809     169.336
  H       -7.260     -84.133     171.298
  H       -8.023     -83.141     169.144
  H       -7.793     -84.861     166.043
  H      -10.454     -84.395     167.534
  H      -11.216     -83.351     165.448
  H       -8.807     -81.981     165.098
  H       -6.318     -87.722     171.469
  H       -9.291     -80.654     167.204
  H       -6.277     -86.192     172.315
  H      -10.612     -80.712     166.060
  P      -10.716     -84.365     163.100
  C       -9.061     -84.016     161.125
  O       -9.894     -84.906     161.835
  O      -11.105     -82.875     162.626
  O      -11.948     -85.120     163.489
  H      -11.988     -82.899     162.217
  H       -8.383     -84.594     160.490
  H       -8.462     -83.400     161.802
  H       -9.674     -83.371     160.479
  H      -10.478     -78.431     170.897
  H      -11.969     -79.331     171.037
  H      -11.769     -78.166     169.750

 3  4  5  6  7  8  9  10  11  12  13  23  27  28  29  30  32 0
 6-311+G(2d,p)
 ****
 34  35 0
 6-311+G(2d,p)
 ****
 1  2  14  15  16  17  18  19  20  21  22  24  25  26 0
 3-21G
 ****
 31  33  36  37  38  39  40  41  42  43  44  45  46 0
 3-21G
 ****


