%nproc=1
%NoSave
%Mem=1900MB
#P OB98/GEN NMR

erre ene a

0 1
  C       92.350     160.591     -89.992
  O       91.526     160.357     -91.116
  P       92.146     160.035     -92.560
  C       93.715     158.206     -93.459
  O       93.267     158.909     -92.311
  C       95.203     157.866     -93.359
  O       95.992     159.022     -93.760
  C       95.673     157.448     -91.957
  O       96.706     156.479     -92.152
  C       96.250     158.739     -91.409
  O       97.131     158.525     -90.314
  C       96.892     159.330     -92.673
  N       97.135     160.761     -92.545
  C       98.284     161.143     -91.851
  O       98.996     160.292     -91.308
  N       98.574     162.478     -91.731
  C       97.730     163.358     -92.179
  N       98.073     164.666     -92.037
  C       96.445     162.998     -92.808
  C       96.222     161.697     -92.973
  O       92.609     161.224     -93.331
  O       90.985     159.211     -93.292
  H       97.685     157.741     -90.511
  H       90.273     159.823     -93.606
  H       95.750     163.765     -93.115
  H       95.306     161.334     -93.424
  H       97.847     158.831     -92.887
  H       95.437     159.389     -91.060
  H       94.874     157.046     -91.331
  H       95.415     157.066     -94.078
  H       98.971     164.868     -91.615
  H       93.557     158.845     -94.332
  H       97.530     165.425     -92.426
  H       93.117     157.298     -93.597
  P       97.092     155.430     -91.003
  C       95.942     153.427     -89.900
  O       95.760     154.616     -90.648
  O       97.804     156.013     -89.825
  O       98.000     154.339     -91.751
  H       98.482     153.808     -91.085
  H       94.980     153.119     -89.482
  H       96.649     153.583     -89.079
  H       96.315     152.636     -90.555
  H       91.738     160.785     -89.136
  H       92.979     161.436     -90.180
  H       92.957     159.729     -89.809

 3  4  5  6  7  8  9  10  11  12  13  23  27  28  29  30  32 0
 6-311+G(2d,p)
 ****
 34  35 0
 6-311+G(2d,p)
 ****
 1  2  14  15  16  17  18  19  20  21  22  24  25  26 0
 3-21G
 ****
 31  33  36  37  38  39  40  41  42  43  44  45  46 0
 3-21G
 ****


