%nproc=1
%NoSave
%Mem=1900MB
#P OB98/GEN NMR

erre ene a

0 1
  C     -119.887     238.282     -80.134
  O     -118.647     237.704     -79.775
  H     -120.642     237.493     -80.170
  H     -119.810     238.742     -81.122
  H     -120.188     239.029     -79.394
  P     -117.436     238.720     -79.483
  C     -116.248     237.821     -77.323
  O     -116.317     237.847     -78.737
  C     -117.258     236.822     -76.756
  O     -117.214     235.615     -77.554
  C     -116.990     236.432     -75.303
  O     -118.244     236.273     -74.635
  C     -116.291     235.089     -75.417
  O     -116.432     234.312     -74.229
  C     -116.953     234.504     -76.672
  N     -116.118     233.495     -77.321
  C     -116.732     232.276     -77.632
  O     -117.912     232.087     -77.342
  N     -115.984     231.290     -78.225
  C     -114.717     231.475     -78.424
  N     -114.027     230.450     -78.994
  C     -114.016     232.722     -78.062
  C     -114.771     233.683     -77.531
  O     -118.050     239.630     -78.319
  O     -116.970     239.476     -80.682
  H     -116.289     234.907     -73.460
  H     -118.554     239.128     -77.656
  H     -112.953     232.823     -78.233
  H     -114.339     234.633     -77.244
  H     -117.917     234.044     -76.420
  H     -115.218     235.242     -75.592
  H     -116.380     237.155     -74.763
  H     -118.263     237.243     -76.875
  H     -114.539     229.605     -79.210
  H     -116.450     238.816     -76.914
  H     -113.030     230.465     -79.146
  H     -115.230     237.536     -77.038
  P     -118.583     237.196     -73.372
  C     -120.804     238.493     -73.541
  O     -120.175     237.269     -73.191
  O     -117.879     238.511     -73.320
  O     -118.141     236.272     -72.131
  H     -117.733     236.852     -71.458
  H     -121.858     238.412     -73.376
  H     -120.620     238.706     -74.573
  H     -120.408     239.283     -72.938

 6  7  8  9  10  11  12  13  14  15  16  26  30  31  32  33  35 0
 6-311+G(2d,p)
 ****
 37  38 0
 6-311+G(2d,p)
 ****
 1  2  3  4  5  17  18  19  20  21  22  23  24  25 0
 3-21G
 ****
 27  28  29  34  36  39  40  41  42  43  44  45  46 0
 3-21G
 ****


