%nproc=1
%NoSave
%Mem=1900MB
#P OB98/GEN NMR

erre ene a

0 1
  C      355.387    -502.142    -150.330
  O      354.185    -501.450    -150.662
  P      352.843    -501.848    -149.879
  C      351.489    -502.166    -152.067
  O      351.614    -501.464    -150.840
  C      350.483    -501.482    -152.992
  O      349.172    -501.491    -152.355
  C      350.808    -500.026    -153.334
  O      350.343    -499.782    -154.664
  C      349.953    -499.245    -152.357
  O      349.736    -497.898    -152.779
  C      348.705    -500.125    -152.321
  N      345.441    -496.935    -150.019
  C      346.035    -496.888    -151.230
  N      346.893    -497.777    -151.776
  C      347.120    -498.799    -150.925
  C      346.612    -498.963    -149.647
  C      345.727    -497.969    -149.191
  N      345.104    -498.017    -147.962
  N      347.091    -500.117    -149.075
  C      347.887    -500.646    -149.992
  N      347.916    -499.897    -151.135
  O      352.774    -500.744    -148.724
  O      352.817    -503.229    -149.318
  H      349.536    -497.907    -153.733
  H      352.923    -501.164    -147.852
  H      345.786    -496.027    -151.847
  H      348.450    -501.558    -149.874
  H      348.063    -499.963    -153.195
  H      350.446    -499.207    -151.378
  H      351.878    -499.778    -153.255
  H      350.395    -502.080    -153.913
  H      351.139    -503.181    -151.857
  H      344.381    -497.348    -147.768
  H      345.164    -498.873    -147.423
  H      352.466    -502.229    -152.558
  P      351.454    -499.486    -155.786
  C      352.186    -497.143    -154.951
  O      351.528    -497.898    -155.955
  O      350.750    -499.982    -157.142
  O      352.751    -500.186    -155.552
  H      351.428    -500.256    -157.781
  H      352.667    -496.279    -155.416
  H      352.948    -497.732    -154.426
  H      351.449    -496.790    -154.227
  H      356.190    -501.770    -150.931
  H      355.259    -503.188    -150.514
  H      355.614    -501.987    -149.296

 3  4  5  6  7  8  9  10  11  12  22  25  29  30  31  32 0
 6-311+G(2d,p)
 ****
 33  36  37 0
 6-311+G(2d,p)
 ****
 1  2  13  14  15  16  17  18  19  20  21  23  24  26 0
 3-21G
 ****
 27  28  34  35  38  39  40  41  42  43  44  45  46  47  48 0
 3-21G
 ****


