%nproc=1
%NoSave
%Mem=1900MB
#P OB98/GEN NMR

erre ene a

0 1
  C     -372.397    -591.016     267.107
  O     -372.463    -589.613     266.935
  H     -371.366    -591.284     267.359
  H     -372.671    -591.506     266.169
  H     -373.057    -591.352     267.911
  P     -373.893    -588.892     267.002
  C     -373.880    -588.474     264.458
  O     -373.997    -587.894     265.753
  C     -373.804    -587.408     263.356
  O     -375.052    -586.687     263.285
  C     -372.721    -586.351     263.636
  O     -371.416    -586.713     263.227
  C     -373.246    -585.160     262.848
  O     -372.827    -585.237     261.473
  C     -374.766    -585.318     262.952
  N     -378.219    -581.683     263.971
  C     -377.916    -582.282     262.760
  N     -378.569    -581.806     261.671
  N     -377.030    -583.236     262.624
  C     -376.390    -583.542     263.784
  C     -376.592    -583.011     265.039
  C     -377.611    -581.991     265.181
  O     -377.919    -581.421     266.228
  N     -375.748    -583.577     265.959
  C     -374.990    -584.382     265.255
  N     -375.355    -584.414     263.933
  O     -373.750    -587.885     268.245
  O     -375.061    -589.817     267.189
  H     -371.858    -585.332     261.451
  H     -374.629    -587.709     268.632
  H     -378.932    -580.969     264.015
  H     -374.179    -584.988     265.667
  H     -375.257    -585.107     261.995
  H     -372.862    -584.213     263.246
  H     -379.169    -580.996     261.709
  H     -372.727    -586.086     264.700
  H     -378.184    -582.026     260.763
  H     -373.659    -587.892     262.394
  H     -374.758    -589.095     264.307
  H     -373.005    -589.127     264.407
  P     -370.297    -587.008     264.334
  C     -368.747    -584.963     263.885
  O     -368.926    -586.358     263.795
  O     -370.053    -588.580     264.172
  O     -370.662    -586.636     265.724
  H     -370.571    -589.071     264.835
  H     -367.790    -584.700     263.485
  H     -368.800    -584.662     264.910
  H     -369.515    -584.468     263.328

 6  7  8  9  10  11  12  13  14  15  26  29  33  34 0
 6-311+G(2d,p)
 ****
 36  38  39  40  41 0
 6-311+G(2d,p)
 ****
 1  2  3  4  5  16  17  18  19  20  21  22  23  24  25 0
 3-21G
 ****
 27  28  30  31  32  35  37  42  43  44  45  46  47 0
 3-21G
 ****
 48  49 0
 3-21G
 ****


