%nproc=1
%NoSave
%Mem=1900MB
#P OB98/GEN NMR

erre ene a

0 1
  C        5.969     968.568    -897.860
  O        7.257     969.149    -897.930
  H        6.074     967.568    -897.390
  H        5.564     968.439    -898.860
  H        5.309     969.170    -897.240
  P        7.328     970.658    -898.500
  C        8.412     971.889    -896.470
  O        8.600     971.350    -897.790
  C        9.764     972.086    -895.760
  O       10.282     970.784    -895.330
  C       10.864     972.709    -896.670
  O       11.672     973.558    -895.820
  C       11.688     971.505    -897.090
  O       13.001     971.882    -897.520
  C       11.627     970.651    -895.800
  N       15.531     967.494    -895.860
  C       15.492     968.836    -895.510
  N       16.635     969.442    -895.140
  N       14.379     969.529    -895.540
  C       13.276     968.814    -895.910
  C       13.243     967.466    -896.300
  C       14.459     966.721    -896.270
  O       14.587     965.534    -896.570
  N       11.945     967.112    -896.630
  C       11.241     968.237    -896.460
  N       12.006     969.279    -896.050
  O        6.064     971.359    -897.790
  O        7.277     970.799    -900.000
  H       12.893     972.540    -898.260
  H        5.290     971.313    -898.380
  H       16.424     967.009    -895.820
  H       10.156     968.307    -896.670
  H       12.303     971.042    -895.030
  H       11.209     970.982    -897.930
  H       17.502     968.940    -895.030
  H       10.479     973.291    -897.510
  H       16.596     970.395    -894.840
  H        9.606     972.675    -894.850
  H        7.796     971.173    -895.890
  H        7.885     972.847    -896.560
  P       12.775     974.483    -896.540
  C       11.732     976.772    -895.810
  O       12.840     975.887    -895.740
  O       12.035     974.905    -897.900
  O       14.112     973.815    -896.820
  H       12.696     975.091    -898.610
  H       11.937     977.647    -895.229
  H       10.861     976.284    -895.425
  H       11.563     977.052    -896.829

 6  7  8  9  10  11  12  13  14  15  26  29  33  34 0
 6-311+G(2d,p)
 ****
 36  38  39  40  41 0
 6-311+G(2d,p)
 ****
 1  2  3  4  5  16  17  18  19  20  21  22  23  24  25 0
 3-21G
 ****
 27  28  30  31  32  35  37  42  43  44  45  46  47 0
 3-21G
 ****
 48  49 0
 3-21G
 ****


