%nproc=1
%NoSave
%Mem=1900MB
#P OB98/GEN NMR

erre ene a

0 1
  C      -20.622     675.776     536.516
  O      -20.206     676.797     535.640
  H      -20.913     674.905     535.918
  H      -21.492     676.098     537.093
  H      -19.810     675.485     537.187
  P      -19.761     678.218     536.247
  C      -17.499     679.396     536.567
  O      -18.158     678.151     536.352
  C      -16.131     679.194     537.219
  O      -16.301     678.559     538.516
  C      -15.178     678.310     536.392
  O      -13.891     678.927     536.324
  C      -15.084     677.029     537.209
  O      -13.885     676.298     536.964
  C      -15.255     677.575     538.631
  N      -15.578     676.529     539.589
  C      -14.505     676.022     540.335
  O      -13.371     676.463     540.166
  N      -14.737     674.988     541.203
  C      -15.922     674.477     541.292
  N      -16.078     673.427     542.150
  C      -17.079     674.956     540.499
  C      -16.837     675.977     539.680
  O      -20.461     678.606     537.506
  O      -19.993     679.266     535.054
  H      -13.898     675.482     537.505
  H      -20.084     680.171     535.437
  H      -18.046     674.480     540.603
  H      -17.619     676.401     539.060
  H      -14.337     678.083     538.964
  H      -15.934     676.376     536.960
  H      -15.541     678.117     535.380
  H      -15.691     680.179     537.413
  H      -15.255     673.124     542.667
  H      -18.139     680.025     537.199
  H      -16.949     672.934     542.285
  H      -17.364     679.890     535.597
  P      -13.746     680.126     535.263
  C      -15.186     682.221     534.724
  O      -14.741     681.313     535.715
  O      -14.419     679.539     533.940
  O      -12.327     680.546     535.025
  H      -13.738     679.377     533.259
  H      -15.834     682.946     535.170
  H      -15.717     681.687     533.964
  H      -14.343     682.716     534.289

 6  7  8  9  10  11  12  13  14  15  16  26  30  31  32  33  35 0
 6-311+G(2d,p)
 ****
 37  38 0
 6-311+G(2d,p)
 ****
 1  2  3  4  5  17  18  19  20  21  22  23  24  25 0
 3-21G
 ****
 27  28  29  34  36  39  40  41  42  43  44  45  46 0
 3-21G
 ****


