%nproc=1
%NoSave
%Mem=1900MB
#P OB98/GEN NMR

erre ene a

0 1
  C        5.934     142.867    -665.063
  O        7.179     143.420    -664.641
  P        7.854     144.535    -665.580
  C        8.853     142.818    -667.260
  O        7.925     143.880    -667.047
  C        9.690     143.082    -668.511
  O        8.849     143.089    -669.678
  C       10.413     144.424    -668.516
  O       11.634     144.378    -667.772
  C       10.703     144.587    -670.001
  O       11.849     143.791    -670.367
  C        9.426     144.020    -670.634
  N        8.128     147.570    -674.083
  C        9.211     146.763    -673.983
  N        9.490     145.851    -673.033
  C        8.529     145.846    -672.085
  C        7.393     146.637    -672.034
  C        7.199     147.528    -673.094
  N        6.084     148.342    -673.203
  N        6.652     146.347    -670.907
  C        7.320     145.385    -670.298
  N        8.455     145.042    -670.977
  O        9.387     144.533    -665.100
  O        7.234     145.892    -665.493
  H       12.611     144.147    -669.864
  H        9.803     145.390    -665.316
  H        9.935     146.863    -674.785
  H        7.016     144.916    -669.377
  H        9.644     143.446    -671.550
  H       10.935     145.619    -670.274
  H        9.752     145.234    -668.169
  H       10.404     142.251    -668.619
  H        8.303     141.885    -667.388
  H        5.931     148.815    -674.085
  H        5.311     148.160    -672.583
  H        9.498     142.723    -666.379
  P       11.813     145.497    -666.628
  C       11.693     147.562    -668.216
  O       11.075     146.802    -667.194
  O       13.373     145.854    -666.728
  O       11.417     145.045    -665.261
  H       13.698     146.199    -665.876
  H       10.949     148.202    -668.680
  H       12.132     146.903    -668.980
  H       12.478     148.186    -667.779
  H        5.604     142.143    -664.347
  H        6.058     142.396    -666.016
  H        5.206     143.647    -665.143

 3  4  5  6  7  8  9  10  11  12  22  25  29  30  31  32 0
 6-311+G(2d,p)
 ****
 33  36  37 0
 6-311+G(2d,p)
 ****
 1  2  13  14  15  16  17  18  19  20  21  23  24  26 0
 3-21G
 ****
 27  28  34  35  38  39  40  41  42  43  44  45  46  47  48 0
 3-21G
 ****


