%nproc=1
%NoSave
%Mem=1900MB
#P OB98/GEN NMR

erre ene a

0 1
  C     -717.128     110.231     334.145
  O     -717.748     109.830     332.934
  P     -717.251     108.475     332.239
  C     -719.452     107.147     332.641
  O     -718.059     107.266     332.924
  C     -719.814     105.710     332.286
  O     -719.525     104.845     333.421
  C     -721.297     105.496     331.923
  O     -721.352     104.466     330.943
  C     -721.890     104.981     333.226
  O     -723.117     104.283     333.023
  C     -720.741     104.126     333.731
  N     -722.457     100.969     337.381
  C     -722.525     100.904     336.029
  N     -722.030     101.785     335.127
  C     -721.433     102.816     335.743
  C     -721.323     103.034     337.106
  C     -721.859     102.046     337.948
  N     -721.787     102.107     339.326
  N     -720.659     104.226     337.365
  C     -720.386     104.716     336.168
  N     -720.812     103.886     335.169
  O     -715.768     108.311     332.820
  O     -717.259     108.479     330.750
  H     -723.209     103.618     333.721
  H     -715.114     108.442     332.098
  H     -723.023     100.033     335.617
  H     -719.873     105.644     335.978
  H     -720.684     103.158     333.235
  H     -722.089     105.824     333.909
  H     -721.799     106.394     331.551
  H     -719.177     105.380     331.457
  H     -719.683     107.790     331.790
  H     -722.075     101.289     339.849
  H     -721.175     102.798     339.755
  H     -720.033     107.493     333.502
  P     -722.565     104.517     329.889
  C     -721.239     106.264     328.501
  O     -722.454     105.931     329.142
  O     -723.863     104.684     330.836
  O     -722.674     103.318     329.008
  H     -724.649     104.301     330.386
  H     -721.461     106.867     327.608
  H     -720.680     105.364     328.190
  H     -720.625     106.854     329.181
  H     -717.565     111.147     334.483
  H     -716.081     110.375     333.979
  H     -717.271     109.473     334.887

 3  4  5  6  7  8  9  10  11  12  22  25  29  30  31  32 0
 6-311+G(2d,p)
 ****
 33  36  37 0
 6-311+G(2d,p)
 ****
 1  2  13  14  15  16  17  18  19  20  21  23  24  26 0
 3-21G
 ****
 27  28  34  35  38  39  40  41  42  43  44  45  46  47  48 0
 3-21G
 ****


