%nproc=1
%NoSave
%Mem=1900MB
#P OB98/GEN NMR

erre ene a

0 1
  C     -120.318    -751.047     988.640
  O     -121.194    -749.908     988.697
  P     -122.761    -750.118     988.399
  C     -123.330    -750.895     990.832
  O     -123.330    -751.213     989.444
  C     -124.757    -750.606     991.316
  O     -125.523    -751.819     991.438
  C     -124.802    -749.966     992.689
  O     -124.588    -748.562     992.614
  C     -126.242    -750.256     993.085
  O     -127.133    -749.309     992.466
  C     -126.469    -751.653     992.542
  N     -128.011    -753.703     996.965
  C     -128.423    -752.601     996.294
  N     -127.945    -752.122     995.120
  C     -126.958    -752.890     994.652
  C     -126.427    -754.041     995.237
  C     -127.008    -754.447     996.456
  N     -126.584    -755.557     997.152
  N     -125.414    -754.550     994.463
  C     -125.342    -753.747     993.428
  N     -126.239    -752.720     993.505
  O     -122.755    -750.900     987.013
  O     -123.529    -748.845     988.321
  H     -126.988    -748.447     992.903
  H     -123.524    -750.641     986.483
  H     -129.247    -752.040     996.744
  H     -124.648    -753.873     992.592
  H     -127.473    -751.793     992.135
  H     -126.399    -750.162     994.178
  H     -124.101    -750.451     993.384
  H     -125.238    -749.956     990.589
  H     -122.688    -750.029     990.998
  H     -127.058    -755.807     997.999
  H     -125.847    -756.143     996.757
  H     -122.874    -751.734     991.374
  P     -124.339    -747.775     993.996
  C     -121.773    -748.241     994.256
  O     -123.090    -748.546     994.694
  O     -125.596    -748.216     994.893
  O     -124.206    -746.293     993.861
  H     -125.817    -747.494     995.518
  H     -121.081    -748.593     995.015
  H     -121.635    -747.156     994.140
  H     -121.563    -748.752     993.321
  H     -119.317    -750.739     988.861
  H     -120.351    -751.474     987.659
  H     -120.634    -751.776     989.357

 3  4  5  6  7  8  9  10  11  12  22  25  29  30  31  32 0
 6-311+G(2d,p)
 ****
 33  36  37 0
 6-311+G(2d,p)
 ****
 1  2  13  14  15  16  17  18  19  20  21  23  24  26 0
 3-21G
 ****
 27  28  34  35  38  39  40  41  42  43  44  45  46  47  48 0
 3-21G
 ****


