%nproc=1
%NoSave
%Mem=1900MB
#P OB98/GEN NMR

erre ene a

0 1
  C     -125.144     482.789    -265.678
  O     -125.904     483.892    -266.119
  H     -125.778     481.893    -265.696
  H     -124.795     482.948    -264.655
  H     -124.291     482.633    -266.346
  P     -125.196     485.332    -266.067
  C     -125.590     486.406    -268.404
  O     -124.713     485.667    -267.566
  C     -126.089     485.497    -269.530
  O     -126.793     484.367    -268.965
  C     -127.090     486.165    -270.459
  O     -126.471     487.001    -271.425
  C     -127.746     484.951    -271.100
  O     -126.986     484.457    -272.218
  C     -127.760     483.930    -269.951
  N     -129.089     483.786    -269.374
  C     -130.006     483.056    -270.138
  O     -129.728     482.572    -271.234
  N     -131.269     482.960    -269.620
  C     -131.708     483.528    -268.467
  O     -132.873     483.442    -268.089
  C     -130.708     484.290    -267.707
  C     -129.464     484.391    -268.179
  O     -123.836     485.036    -265.278
  O     -126.007     486.410    -265.416
  H     -123.894     485.399    -264.371
  H     -127.499     483.694    -272.573
  H     -131.948     482.437    -270.165
  H     -131.023     484.764    -266.779
  H     -128.709     484.946    -267.655
  H     -127.430     482.947    -270.300
  H     -128.735     485.187    -271.474
  H     -127.844     486.709    -269.885
  H     -125.222     485.122    -270.090
  H     -125.057     487.249    -268.848
  H     -126.422     486.786    -267.807
  P     -126.543     488.596    -271.182
  C     -124.114     489.059    -272.076
  O     -125.026     489.078    -270.988
  O     -127.171     488.640    -269.713
  O     -127.322     489.313    -272.233
  H     -126.962     487.834    -269.196
  H     -123.160     489.415    -271.748
  H     -124.480     489.690    -272.859
  H     -124.015     488.058    -272.441

 6  7  8  9  10  11  12  13  14  15  16  27  31  32  33  34  35 0
 6-311+G(2d,p)
 ****
 36  37 0
 6-311+G(2d,p)
 ****
 1  2  3  4  5  17  18  19  20  21  22  23  24  25 0
 3-21G
 ****
 26  28  29  30  38  39  40  41  42  43  44  45 0
 3-21G
 ****


