%nproc=1
%NoSave
%Mem=1900MB
#P OB98/GEN NMR

erre ene a

0 1
  C       -7.247     -19.830     -46.015
  O       -7.033     -20.186     -47.379
  P       -6.028     -21.316     -47.885
  C       -7.412     -23.543     -47.686
  O       -6.880     -22.515     -48.511
  C       -8.782     -24.010     -48.201
  O       -9.730     -22.907     -48.073
  C       -8.749     -24.408     -49.681
  O       -9.494     -25.586     -49.970
  C       -9.172     -23.130     -50.385
  O       -9.643     -23.342     -51.707
  C      -10.178     -22.542     -49.399
  N      -13.296     -18.602     -50.299
  C      -13.536     -19.955     -50.427
  N      -14.761     -20.314     -50.867
  N      -12.649     -20.877     -50.163
  C      -11.443     -20.383     -49.808
  C      -11.077     -19.064     -49.661
  C      -12.083     -18.053     -49.907
  O      -11.928     -16.840     -49.789
  N       -9.766     -18.950     -49.276
  C       -9.334     -20.193     -49.211
  N      -10.320     -21.102     -49.517
  O       -4.936     -21.689     -46.939
  O       -5.336     -20.656     -49.184
  H      -10.460     -23.872     -51.651
  H       -4.427     -21.015     -49.223
  H      -14.023     -17.936     -50.494
  H       -8.330     -20.491     -48.935
  H      -11.179     -22.954     -49.538
  H       -8.287     -22.485     -50.460
  H      -15.446     -19.657     -51.204
  H       -7.731     -24.668     -49.991
  H      -14.857     -21.285     -51.168
  H       -9.133     -24.833     -47.570
  H       -7.519     -23.103     -46.688
  H       -6.713     -24.376     -47.607
  P       -8.976     -27.092     -50.082
  C       -8.594     -27.518     -47.582
  O       -9.350     -27.861     -48.728
  O       -7.382     -26.990     -50.005
  O       -9.388     -27.803     -51.329
  H       -6.989     -27.331     -50.833
  H       -8.756     -28.280     -46.814
  H       -8.930     -26.551     -47.198
  H       -7.528     -27.472     -47.819
  H       -7.971     -19.044     -45.961
  H       -6.326     -19.496     -45.585
  H       -7.604     -20.682     -45.476

 3  4  5  6  7  8  9  10  11  12  23  26  30  31 0
 6-311+G(2d,p)
 ****
 33  35  36  37  38 0
 6-311+G(2d,p)
 ****
 1  2  13  14  15  16  17  18  19  20  21  22  24  25 0
 3-21G
 ****
 27  28  29  32  34  39  40  41  42  43  44  45  46  47  48  49 0
 3-21G
 ****


