%nproc=1
%NoSave
%Mem=1900MB
#P OB98/GEN NMR

erre ene a

0 1
  C     -101.011    -339.945     258.068
  O     -100.977    -339.104     259.207
  P     -102.301    -338.876     260.075
  C     -103.626    -336.795     260.905
  O     -102.488    -337.292     260.238
  C     -103.310    -335.483     261.637
  O     -102.380    -335.785     262.705
  C     -102.636    -334.417     260.782
  O     -102.781    -333.155     261.433
  C     -101.188    -334.850     260.830
  O     -100.296    -333.791     260.495
  C     -101.052    -335.400     262.273
  N     -100.142    -336.560     262.326
  C      -98.890    -336.406     261.737
  O      -98.504    -335.339     261.259
  N      -98.130    -337.538     261.641
  C      -98.523    -338.787     262.029
  O      -97.976    -339.822     261.662
  C      -99.743    -338.841     262.851
  C     -100.501    -337.746     262.940
  O     -101.857    -339.360     261.532
  O     -103.504    -339.607     259.589
  H     -100.376    -333.113     261.204
  H     -102.135    -340.284     261.681
  H      -97.287    -337.458     261.087
  H     -100.010    -339.788     263.305
  H     -101.431    -337.771     263.497
  H     -100.665    -334.637     262.959
  H     -101.030    -335.656     260.105
  H     -103.012    -334.362     259.756
  H     -104.230    -335.094     262.092
  H     -103.993    -337.552     261.605
  H     -104.436    -336.617     260.190
  P     -102.719    -331.832     260.526
  C     -100.815    -330.230     259.882
  O     -101.166    -331.550     260.247
  O     -103.502    -330.663     261.023
  O     -103.248    -332.342     259.104
  H     -103.531    -331.583     258.565
  H      -99.794    -330.032     260.216
  H     -101.489    -329.497     260.340
  H     -100.861    -330.133     258.795
  H     -100.041    -339.976     257.618
  H     -101.719    -339.562     257.363
  H     -101.299    -340.932     258.362

 3  4  5  6  7  8  9  10  11  12  13  23  28  29  30  31  32 0
 6-311+G(2d,p)
 ****
 33  34 0
 6-311+G(2d,p)
 ****
 1  2  14  15  16  17  18  19  20  21  22  24  25  26  27 0
 3-21G
 ****
 35  36  37  38  39  40  41  42  43  44  45 0
 3-21G
 ****


