%nproc=1
%NoSave
%Mem=1900MB
#P OB98/GEN NMR

erre ene a

0 1
  C        2.113    -493.368    -150.856
  O        3.508    -493.126    -150.875
  H        1.611    -492.498    -150.422
  H        1.889    -494.247    -150.241
  H        1.744    -493.520    -151.875
  P        4.428    -494.324    -151.421
  C        4.452    -495.370    -149.050
  O        4.192    -495.566    -150.431
  C        5.745    -496.077    -148.642
  O        6.186    -495.628    -147.342
  C        5.630    -497.597    -148.566
  O        5.792    -498.182    -149.846
  C        6.770    -497.935    -147.616
  O        8.040    -497.933    -148.310
  C        6.700    -496.775    -146.608
  N        6.454    -499.221    -142.194
  C        7.422    -499.251    -143.177
  N        8.474    -500.073    -142.967
  N        7.369    -498.543    -144.274
  C        6.236    -497.807    -144.381
  C        5.199    -497.695    -143.480
  C        5.301    -498.442    -142.241
  O        4.515    -498.392    -141.296
  N        4.232    -496.834    -143.938
  C        4.666    -496.452    -145.124
  N        5.877    -497.022    -145.443
  O        5.916    -493.842    -151.062
  O        4.296    -494.620    -152.879
  H        8.378    -497.021    -148.348
  H        6.513    -494.106    -151.787
  H        6.563    -499.762    -141.355
  H        4.155    -495.767    -145.786
  H        7.695    -496.501    -146.237
  H        6.655    -498.931    -147.186
  H        8.431    -500.835    -142.307
  H        4.677    -497.897    -148.110
  H        9.146    -500.149    -143.722
  H        6.520    -495.787    -149.363
  H        3.618    -495.771    -148.472
  H        4.544    -494.294    -148.851
  P        5.240    -499.673    -150.074
  C        7.514    -500.734    -149.404
  O        6.116    -500.669    -149.167
  O        5.721    -500.004    -151.568
  O        3.760    -499.813    -149.939
  H        4.956    -499.962    -152.176
  H        7.958    -501.435    -148.728
  H        7.947    -499.767    -149.251
  H        7.691    -501.049    -150.411

 6  7  8  9  10  11  12  13  14  15  26  29  33  34 0
 6-311+G(2d,p)
 ****
 36  38  39  40  41 0
 6-311+G(2d,p)
 ****
 1  2  3  4  5  16  17  18  19  20  21  22  23  24  25 0
 3-21G
 ****
 27  28  30  31  32  35  37  42  43  44  45  46  47 0
 3-21G
 ****
 48  49 0
 3-21G
 ****


