%nproc=1
%NoSave
%Mem=1900MB
#P OB98/GEN NMR

erre ene a

0 1
  C       50.826      34.206      -9.933
  O       51.062      35.572      -9.661
  P       50.441      36.720     -10.584
  C       49.301      37.799      -8.559
  O       49.120      37.275      -9.868
  C       48.387      38.996      -8.307
  O       48.415      39.334      -6.895
  C       48.767      40.253      -9.099
  O       47.547      40.889      -9.496
  C       49.497      41.097      -8.073
  O       49.506      42.476      -8.412
  C       48.718      40.740      -6.803
  N       49.460      41.045      -5.590
  C       49.149      42.242      -4.943
  O       48.379      43.047      -5.468
  N       49.733      42.500      -3.728
  C       50.680      41.726      -3.297
  N       51.183      41.979      -2.058
  C       51.206      40.590      -4.079
  C       50.530      40.282      -5.183
  O       50.257      36.348     -12.018
  O       51.468      37.941     -10.440
  H       51.745      38.232     -11.330
  H       49.776      42.994      -7.625
  H       52.078      40.053      -3.739
  H       50.820      39.448      -5.811
  H       47.761      41.275      -6.775
  H       50.537      40.760      -7.992
  H       49.364      40.031      -9.987
  H       47.359      38.696      -8.547
  H       50.770      42.740      -1.535
  H       50.341      38.118      -8.462
  H       51.676      41.268      -1.520
  H       49.123      37.013      -7.816
  P       47.601      41.961     -10.691
  C       47.484      40.309     -12.687
  O       48.255      41.245     -11.965
  O       48.789      42.927     -10.204
  O       46.362      42.761     -10.925
  H       48.666      43.807     -10.605
  H       48.108      39.875     -13.473
  H       46.628      40.801     -13.155
  H       47.139      39.506     -12.032
  H       51.327      33.605      -9.203
  H       51.198      33.967     -10.907
  H       49.775      34.011      -9.895

 3  4  5  6  7  8  9  10  11  12  13  24  27  28  29  30  32 0
 6-311+G(2d,p)
 ****
 34  35 0
 6-311+G(2d,p)
 ****
 1  2  14  15  16  17  18  19  20  21  22  23  25  26 0
 3-21G
 ****
 31  33  36  37  38  39  40  41  42  43  44  45  46 0
 3-21G
 ****


