%nproc=1
%NoSave
%Mem=1900MB
#P OB98/GEN NMR

erre ene a

0 1
  C       -7.525     321.807    -717.667
  O       -7.585     320.473    -717.193
  P       -6.603     319.946    -716.028
  C       -5.577     318.172    -717.610
  O       -6.284     318.415    -716.408
  C       -5.605     316.672    -717.941
  O       -4.555     316.013    -717.184
  C       -6.924     315.965    -717.610
  O       -7.142     314.958    -718.616
  C       -6.645     315.338    -716.262
  O       -7.517     314.255    -715.978
  C       -5.172     314.948    -716.421
  N       -4.500     314.754    -715.135
  C       -4.535     313.479    -714.573
  O       -5.135     312.568    -715.129
  N       -3.886     313.269    -713.382
  C       -3.321     314.269    -712.772
  N       -2.634     313.989    -711.631
  C       -3.351     315.655    -713.280
  C       -3.933     315.810    -714.474
  O       -7.103     320.161    -714.641
  O       -5.209     320.665    -716.352
  H       -8.444     314.562    -716.100
  H       -5.141     321.571    -715.960
  H       -2.888     316.451    -712.719
  H       -3.974     316.794    -714.932
  H       -5.085     314.036    -717.039
  H       -6.772     316.091    -715.471
  H       -7.782     316.658    -717.610
  H       -5.359     316.551    -719.010
  H       -2.491     313.016    -711.406
  H       -4.537     318.483    -717.471
  H       -1.917     314.628    -711.273
  H       -6.004     318.759    -718.430
  P       -8.655     314.588    -719.012
  C       -8.632     312.136    -718.175
  O       -8.716     313.001    -719.269
  O       -8.737     315.184    -720.508
  O       -9.732     315.184    -718.177
  H       -9.663     315.379    -720.715
  H       -8.699     311.115    -718.534
  H       -9.448     312.307    -717.479
  H       -7.675     312.266    -717.654
  H       -8.257     321.946    -718.435
  H       -6.551     322.001    -718.064
  H       -7.722     322.481    -716.860

 3  4  5  6  7  8  9  10  11  12  13  23  27  28  29  30  32 0
 6-311+G(2d,p)
 ****
 34  35 0
 6-311+G(2d,p)
 ****
 1  2  14  15  16  17  18  19  20  21  22  24  25  26 0
 3-21G
 ****
 31  33  36  37  38  39  40  41  42  43  44  45  46 0
 3-21G
 ****


