%nproc=1
%NoSave
%Mem=1900MB
#P OB98/GEN NMR

erre ene a

0 1
  C       47.618     -31.776       1.850
  O       47.408     -30.412       2.173
  P       48.560     -29.524       2.856
  C       47.602     -30.303       5.129
  O       48.756     -30.141       4.323
  C       47.940     -30.051       6.600
  O       49.022     -30.940       6.984
  C       48.387     -28.617       6.909
  O       47.900     -28.294       8.217
  C       49.899     -28.727       6.913
  O       50.522     -27.679       7.641
  C       50.085     -30.123       7.515
  N       51.391     -30.696       7.208
  C       52.494     -30.218       7.916
  O       52.369     -29.325       8.753
  N       53.727     -30.763       7.659
  C       53.861     -31.646       6.718
  N       55.091     -32.199       6.543
  C       52.740     -32.099       5.873
  C       51.546     -31.605       6.186
  O       48.319     -28.055       2.825
  O       49.901     -29.984       2.121
  H       50.182     -26.828       7.306
  H       50.061     -29.500       1.273
  H       52.908     -32.816       5.082
  H       50.664     -31.900       5.636
  H       49.943     -30.089       8.601
  H       50.271     -28.688       5.883
  H       48.000     -27.889       6.190
  H       47.067     -30.319       7.206
  H       55.788     -31.992       7.251
  H       47.247     -31.331       5.020
  H       55.200     -33.093       6.078
  H       46.813     -29.626       4.785
  P       47.225     -26.855       8.443
  C       49.428     -25.838       9.360
  O       48.385     -25.751       8.414
  O       46.859     -26.912      10.007
  O       45.995     -26.566       7.646
  H       46.113     -26.308      10.180
  H       50.126     -25.015       9.187
  H       49.970     -26.781       9.248
  H       49.032     -25.754      10.375
  H       46.731     -32.178       1.407
  H       47.851     -32.322       2.741
  H       48.431     -31.858       1.159

 3  4  5  6  7  8  9  10  11  12  13  23  27  28  29  30  32 0
 6-311+G(2d,p)
 ****
 34  35 0
 6-311+G(2d,p)
 ****
 1  2  14  15  16  17  18  19  20  21  22  24  25  26 0
 3-21G
 ****
 31  33  36  37  38  39  40  41  42  43  44  45  46 0
 3-21G
 ****


