%nproc=1
%NoSave
%Mem=1900MB
#P OB98/GEN NMR

erre ene a

0 1
  C     -702.460    -387.055     448.653
  O     -702.399    -385.772     448.068
  H     -703.508    -387.365     448.714
  H     -702.038    -387.027     449.666
  H     -701.911    -387.793     448.055
  P     -700.976    -385.225     447.569
  C     -702.284    -383.769     445.868
  O     -701.254    -383.810     446.849
  C     -702.347    -382.385     445.206
  O     -703.206    -381.518     446.002
  C     -700.958    -381.722     445.167
  O     -700.823    -380.812     444.074
  C     -700.933    -380.932     446.477
  O     -700.006    -379.840     446.445
  C     -702.391    -380.500     446.596
  N     -702.159    -377.464     450.690
  C     -701.415    -377.415     449.544
  N     -700.481    -376.426     449.458
  N     -701.545    -378.275     448.551
  C     -702.467    -379.245     448.806
  C     -703.254    -379.402     449.912
  C     -703.124    -378.427     450.985
  O     -703.749    -378.437     452.038
  N     -704.063    -380.509     449.801
  C     -703.765    -381.033     448.634
  N     -702.810    -380.276     447.971
  O     -700.618    -386.178     446.330
  O     -699.884    -385.215     448.592
  H     -700.431    -379.101     445.967
  H     -699.663    -386.166     446.170
  H     -702.044    -376.760     451.402
  H     -704.199    -381.917     448.208
  H     -702.564    -379.571     446.048
  H     -700.614    -381.609     447.269
  H     -700.216    -375.891     450.265
  H     -700.146    -382.445     445.131
  H     -699.732    -376.578     448.786
  H     -702.795    -382.463     444.217
  H     -703.222    -383.988     446.385
  H     -702.125    -384.543     445.123
  P     -700.093    -381.323     442.749
  C     -702.155    -380.820     441.127
  O     -700.781    -380.650     441.456
  O     -700.511    -382.855     442.646
  O     -698.612    -381.135     442.764
  H     -699.737    -383.427     442.749
  H     -702.376    -380.280     440.230
  H     -702.762    -380.448     441.926
  H     -702.360    -381.859     440.978

 6  7  8  9  10  11  12  13  14  15  26  29  33  34 0
 6-311+G(2d,p)
 ****
 36  38  39  40  41 0
 6-311+G(2d,p)
 ****
 1  2  3  4  5  16  17  18  19  20  21  22  23  24  25 0
 3-21G
 ****
 27  28  30  31  32  35  37  42  43  44  45  46  47 0
 3-21G
 ****
 48  49 0
 3-21G
 ****


