%nproc=1
%NoSave
%Mem=1900MB
#P OB98/GEN NMR

erre ene a

0 1
  C     -384.934    -223.047     283.128
  O     -385.849    -224.085     283.503
  P     -385.532    -224.942     284.835
  C     -387.626    -224.083     286.163
  O     -386.912    -225.208     285.613
  C     -389.124    -224.369     286.127
  O     -389.617    -224.381     284.773
  C     -389.523    -225.744     286.691
  O     -389.516    -225.732     288.119
  C     -390.919    -225.915     286.102
  O     -391.915    -225.212     286.903
  C     -390.784    -225.258     284.715
  N     -390.672    -226.230     283.641
  C     -391.861    -226.658     283.072
  O     -392.982    -226.294     283.478
  N     -391.740    -227.565     282.044
  C     -390.595    -228.112     281.572
  O     -390.551    -228.914     280.658
  C     -389.371    -227.677     282.269
  C     -389.458    -226.789     283.244
  O     -384.812    -223.864     285.765
  O     -384.649    -226.149     284.648
  H     -391.616    -224.277     286.939
  H     -384.185    -224.313     286.390
  H     -392.601    -227.867     281.588
  H     -388.428    -228.114     281.945
  H     -388.568    -226.468     283.787
  H     -391.624    -224.606     284.509
  H     -391.237    -226.966     286.059
  H     -388.864    -226.524     286.287
  H     -389.646    -223.568     286.661
  H     -387.417    -223.212     285.559
  H     -387.297    -223.924     287.183
  P     -389.478    -227.186     288.837
  C     -387.206    -226.722     290.056
  O     -388.593    -226.979     290.144
  O     -388.540    -228.014     287.822
  O     -390.849    -227.757     289.021
  H     -387.849    -227.452     287.426
  H     -386.981    -226.138     289.171
  H     -386.666    -227.662     290.042
  H     -386.892    -226.176     290.947
  H     -385.278    -222.575     282.232
  H     -383.965    -223.469     282.959
  H     -384.875    -222.323     283.913

 3  4  5  6  7  8  9  10  11  12  13  23  28  29  30  31  32 0
 6-311+G(2d,p)
 ****
 33  34 0
 6-311+G(2d,p)
 ****
 1  2  14  15  16  17  18  19  20  21  22  24  25  26 0
 3-21G
 ****
 27  35  36  37  38  39  40  41  42  43  44  45 0
 3-21G
 ****


