%nproc=1
%NoSave
%Mem=1900MB
#P OB98/GEN NMR

erre ene a

0 1
  C      -87.486     -58.675      -7.042
  O      -86.521     -58.398      -8.038
  H      -88.333     -57.997      -7.176
  H      -87.061     -58.514      -6.048
  H      -87.838     -59.706      -7.136
  P      -85.161     -59.248      -7.985
  C      -84.207     -57.750      -6.087
  O      -84.560     -59.061      -6.509
  C      -83.422     -57.827      -4.782
  O      -84.114     -58.679      -3.840
  C      -82.032     -58.430      -4.927
  O      -81.096     -57.505      -5.455
  C      -81.731     -58.814      -3.488
  O      -81.221     -57.699      -2.740
  C      -83.119     -59.245      -2.963
  N      -83.241     -60.695      -2.858
  C      -82.453     -61.299      -1.882
  O      -81.695     -60.670      -1.145
  N      -82.537     -62.663      -1.805
  C      -83.284     -63.467      -2.618
  O      -83.259     -64.689      -2.543
  C      -84.109     -62.772      -3.621
  C      -84.042     -61.440      -3.702
  O      -84.168     -58.399      -8.911
  O      -85.282     -60.665      -8.438
  H      -84.080     -58.827      -9.783
  H      -81.182     -57.992      -1.808
  H      -81.965     -63.119      -1.112
  H      -84.720     -63.380      -4.279
  H      -84.625     -60.908      -4.448
  H      -83.298     -58.818      -1.967
  H      -80.980     -59.603      -3.431
  H      -82.074     -59.343      -5.536
  H      -83.363     -56.817      -4.351
  H      -85.117     -57.163      -5.922
  H      -83.615     -57.270      -6.872
  P      -79.901     -58.061      -6.369
  C      -78.381     -58.703      -4.323
  O      -79.096     -59.120      -5.471
  O      -78.937     -56.786      -6.426
  O      -80.347     -58.575      -7.696
  H      -78.928     -56.278      -5.596
  H      -77.916     -59.551      -3.865
  H      -79.056     -58.248      -3.628
  H      -77.631     -57.995      -4.608

 6  7  8  9  10  11  12  13  14  15  16  27  31  32  33  34  35 0
 6-311+G(2d,p)
 ****
 36  37 0
 6-311+G(2d,p)
 ****
 1  2  3  4  5  17  18  19  20  21  22  23  24  25 0
 3-21G
 ****
 26  28  29  30  38  39  40  41  42  43  44  45 0
 3-21G
 ****


