%nproc=1
%NoSave
%Mem=1900MB
#P OB98/GEN NMR

erre ene a

0 1
  C       72.348    -116.442    -340.036
  O       71.792    -115.378    -340.818
  P       71.789    -115.530    -342.414
  C       72.795    -113.220    -342.996
  O       71.641    -114.058    -343.069
  C       72.443    -111.790    -343.452
  O       71.467    -111.238    -342.511
  C       73.618    -110.798    -343.448
  O       74.405    -110.681    -344.631
  C       72.891    -109.471    -343.276
  O       72.420    -109.005    -344.547
  C       71.703    -109.824    -342.384
  N       71.958    -105.987    -338.978
  C       71.696    -106.007    -340.307
  N       71.651    -107.073    -341.139
  C       71.886    -108.206    -340.471
  C       72.146    -108.350    -339.120
  C       72.190    -107.173    -338.355
  N       72.447    -107.157    -337.002
  N       72.343    -109.688    -338.790
  C       72.225    -110.323    -339.936
  N       71.921    -109.490    -340.975
  O       70.872    -116.565    -342.971
  O       73.320    -115.887    -342.730
  H       71.950    -109.758    -344.965
  H       73.347    -116.531    -343.467
  H       71.514    -105.037    -340.762
  H       72.333    -111.402    -340.055
  H       70.779    -109.310    -342.681
  H       73.548    -108.682    -342.877
  H       74.279    -110.981    -342.582
  H       71.980    -111.821    -344.438
  H       73.577    -113.623    -343.656
  H       72.494    -106.265    -336.536
  H       72.684    -108.016    -336.531
  H       73.181    -113.261    -341.979
  P       75.996    -110.867    -344.602
  C       76.472    -108.645    -345.888
  O       76.556    -110.040    -345.863
  O       76.472    -112.276    -344.515
  O       76.428    -109.950    -343.361
  H       76.298    -108.992    -343.506
  H       77.088    -108.261    -346.712
  H       76.861    -108.210    -344.953
  H       75.433    -108.334    -346.053
  H       72.278    -116.195    -338.997
  H       73.375    -116.580    -340.301
  H       71.806    -117.345    -340.226

 3  4  5  6  7  8  9  10  11  12  22  25  29  30  31  32 0
 6-311+G(2d,p)
 ****
 33  36  37 0
 6-311+G(2d,p)
 ****
 1  2  13  14  15  16  17  18  19  20  21  23  24  26 0
 3-21G
 ****
 27  28  34  35  38  39  40  41  42  43  44  45  46  47  48 0
 3-21G
 ****


