%nproc=1
%NoSave
%Mem=1900MB
#P OB98/GEN NMR

erre ene a

0 1
  C     -544.896    -722.483     402.990
  O     -545.460    -721.222     402.674
  H     -544.279    -722.811     402.147
  H     -545.689    -723.217     403.157
  H     -544.265    -722.401     403.880
  P     -546.393    -720.560     403.799
  C     -544.772    -718.573     404.281
  O     -546.038    -718.996     403.799
  C     -544.435    -717.177     403.751
  O     -544.072    -717.287     402.342
  C     -545.602    -716.183     403.832
  O     -545.051    -714.861     403.975
  C     -546.227    -716.330     402.452
  O     -547.123    -715.271     402.188
  C     -544.958    -716.413     401.608
  N     -545.220    -715.206     396.648
  C     -544.909    -714.468     397.741
  N     -544.848    -714.865     399.022
  C     -545.133    -716.175     399.136
  C     -545.458    -717.051     398.118
  C     -545.501    -716.520     396.818
  N     -545.828    -717.266     395.706
  N     -545.687    -718.325     398.623
  C     -545.500    -718.207     399.920
  N     -545.172    -716.922     400.276
  O     -545.760    -721.096     405.164
  O     -547.849    -720.874     403.693
  H     -547.330    -715.222     401.232
  H     -546.240    -721.886     405.467
  H     -544.684    -713.421     397.551
  H     -545.591    -719.004     400.642
  H     -544.470    -715.435     401.516
  H     -546.806    -717.257     402.384
  H     -546.284    -716.385     404.661
  H     -543.553    -716.800     404.276
  H     -544.017    -719.294     403.940
  H     -544.786    -718.558     405.371
  H     -545.851    -716.804     394.811
  H     -546.055    -718.240     395.823
  P     -546.005    -713.660     404.444
  C     -544.892    -713.400     406.795
  O     -545.244    -712.798     405.559
  O     -547.111    -714.430     405.316
  O     -546.658    -712.881     403.343
  H     -547.957    -713.936     405.293
  H     -544.394    -712.682     407.413
  H     -544.239    -714.229     406.615
  H     -545.777    -713.743     407.289

 6  7  8  9  10  11  12  13  14  15  25  28  32  33  34  35 0
 6-311+G(2d,p)
 ****
 36  37  40 0
 6-311+G(2d,p)
 ****
 1  2  3  4  5  16  17  18  19  20  21  22  23  24 0
 3-21G
 ****
 26  27  29  30  31  38  39 41  42  43  44  45  46  47  48 0
 3-21G
 ****


