%nproc=1
%NoSave
%Mem=1900MB
#P OB98/GEN NMR

erre ene a

0 1
  C      375.824     190.808    -187.229
  O      377.216     190.981    -187.341
  H      375.337     191.372    -188.029
  H      375.483     191.196    -186.263
  H      375.541     189.756    -187.322
  P      378.186     189.929    -186.617
  C      378.692     188.152    -188.420
  O      379.169     189.304    -187.722
  C      379.145     188.163    -189.885
  O      378.527     189.275    -190.574
  C      380.660     188.334    -190.032
  O      381.393     187.119    -189.980
  C      380.769     188.979    -191.413
  O      380.838     187.992    -192.451
  C      379.471     189.788    -191.528
  N      379.907     194.444    -193.610
  C      379.878     193.203    -194.238
  N      380.030     193.223    -195.581
  N      379.742     192.080    -193.600
  C      379.712     192.211    -192.251
  C      379.748     193.374    -191.518
  C      379.822     194.632    -192.236
  O      379.837     195.745    -191.729
  N      379.733     193.124    -190.167
  C      379.772     191.803    -190.086
  N      379.680     191.210    -191.323
  O      377.211     188.699    -186.282
  O      378.854     190.425    -185.369
  H      381.614     187.423    -192.274
  H      377.512     188.256    -185.469
  H      379.990     195.279    -194.157
  H      379.822     191.234    -189.165
  H      379.018     189.676    -192.522
  H      381.678     189.580    -191.488
  H      380.223     194.054    -196.114
  H      381.041     189.039    -189.292
  H      380.203     192.338    -196.055
  H      378.791     187.245    -190.374
  H      377.606     188.182    -188.364
  H      379.032     187.245    -187.923
  P      382.973     187.127    -189.734
  C      382.641     186.833    -187.143
  O      383.268     186.413    -188.339
  O      383.282     188.663    -189.434
  O      383.809     186.598    -190.857
  H      383.627     189.117    -190.239
  H      382.978     186.224    -186.331
  H      381.580     186.738    -187.244
  H      382.891     187.855    -186.949

 6  7  8  9  10  11  12  13  14  15  26  29  33  34 0
 6-311+G(2d,p)
 ****
 36  38  39  40  41 0
 6-311+G(2d,p)
 ****
 1  2  3  4  5  16  17  18  19  20  21  22  23  24  25 0
 3-21G
 ****
 27  28  30  31  32  35  37  42  43  44  45  46  47 0
 3-21G
 ****
 48  49 0
 3-21G
 ****


