%nproc=1
%NoSave
%Mem=1900MB
#P OB98/GEN NMR

erre ene a

0 1
  C     -216.454      89.721    -199.444
  O     -215.453      90.245    -200.318
  P     -215.893      90.491    -201.845
  C     -215.264      88.255    -202.987
  O     -216.303      89.085    -202.498
  C     -215.747      87.327    -204.110
  O     -214.666      86.495    -204.605
  C     -216.866      86.372    -203.664
  O     -217.730      86.182    -204.802
  C     -216.139      85.082    -203.388
  O     -217.020      83.957    -203.424
  C     -215.066      85.114    -204.487
  N     -213.924      84.240    -204.208
  C     -214.130      82.861    -204.344
  O     -215.254      82.424    -204.617
  N     -213.074      82.007    -204.126
  C     -211.928      82.483    -203.760
  N     -210.920      81.584    -203.557
  C     -211.683      83.917    -203.546
  C     -212.711      84.728    -203.790
  O     -214.510      90.862    -202.573
  O     -216.902      91.589    -202.008
  H     -216.509      83.161    -203.147
  H     -214.618      91.678    -203.097
  H     -210.705      84.270    -203.215
  H     -212.627      85.800    -203.663
  H     -215.491      84.809    -205.452
  H     -215.666      85.122    -202.391
  H     -217.453      86.754    -202.820
  H     -216.095      87.948    -204.941
  H     -211.125      80.602    -203.724
  H     -214.858      87.646    -202.171
  H     -209.989      81.841    -203.267
  H     -214.434      88.888    -203.337
  P     -218.966      87.189    -204.998
  C     -220.633      85.989    -203.442
  O     -219.783      87.111    -203.616
  O     -219.917      86.342    -205.976
  O     -218.689      88.547    -205.549
  H     -220.682      86.875    -206.241
  H     -221.025      86.004    -202.427
  H     -220.070      85.064    -203.594
  H     -221.463      86.041    -204.150
  H     -216.044      89.602    -198.463
  H     -216.785      88.772    -199.810
  H     -217.282      90.397    -199.405

 3  4  5  6  7  8  9  10  11  12  13  21  23  27  28  29  30  32 0
 6-311+G(2d,p)
 ****
 34  35 0
 6-311+G(2d,p)
 ****
 1  2  14  15  16  17  18  19  20  22  24  25  26 0
 3-21G
 ****
 31  33  36  37  38  39  40  41  42  43  44  45  46 0
 3-21G
 ****


