%nproc=1
%NoSave
%Mem=1900MB
#P OB98/GEN NMR

erre ene a

0 1
  C     -437.452     401.917     192.151
  O     -436.666     402.703     191.278
  H     -438.192     401.373     191.558
  H     -437.973     402.547     192.873
  H     -436.823     401.190     192.676
  P     -435.573     403.689     191.915
  C     -433.422     403.421     190.508
  O     -434.620     404.154     190.714
  C     -432.423     404.235     189.671
  O     -432.954     404.385     188.320
  C     -432.161     405.649     190.217
  O     -430.824     406.007     189.854
  C     -433.169     406.463     189.428
  O     -432.898     407.842     189.521
  C     -433.045     405.804     188.053
  N     -434.162     406.122     187.179
  C     -433.927     407.106     186.210
  O     -432.835     407.664     186.149
  N     -434.951     407.460     185.371
  C     -436.126     406.925     185.524
  N     -437.099     407.329     184.662
  C     -436.427     405.923     186.566
  C     -435.407     405.570     187.351
  O     -434.859     403.174     193.121
  O     -436.404     405.015     192.253
  H     -433.212     408.202     190.381
  H     -436.561     405.072     193.212
  H     -437.424     405.523     186.659
  H     -435.534     404.840     188.144
  H     -432.113     406.105     187.555
  H     -434.180     406.318     189.830
  H     -432.292     405.718     191.303
  H     -431.487     403.668     189.584
  H     -436.849     408.022     183.971
  H     -433.686     402.500     189.979
  H     -438.049     406.996     184.698
  H     -432.966     403.161     191.470
  P     -429.587     405.905     190.871
  C     -427.654     405.427     189.226
  O     -428.244     406.362     190.120
  O     -429.474     404.583     191.560
  O     -429.831     407.077     191.936
  H     -429.462     406.801     192.798
  H     -426.772     405.853     188.795
  H     -428.350     405.188     188.450
  H     -427.396     404.537     189.760

 6  7  8  9  10  11  12  13  14  15  16  26  30  31  32  33  35 0
 6-311+G(2d,p)
 ****
 37  38 0
 6-311+G(2d,p)
 ****
 1  2  3  4  5  17  18  19  20  21  22  23  24  25 0
 3-21G
 ****
 27  28  29  34  36  39  40  41  42  43  44  45  46 0
 3-21G
 ****


