%nproc=1
%NoSave
%Mem=1900MB
#P OB98/GEN NMR

erre ene a

0 1
  C        5.771     152.158      44.378
  O        4.882     151.164      44.897
  P        3.364     151.624      45.171
  C        2.050     152.636      47.179
  O        3.303     152.196      46.668
  C        2.100     152.769      48.698
  O        2.101     151.477      49.332
  C        3.344     153.473      49.224
  O        3.239     154.884      49.107
  C        3.324     153.049      50.687
  O        2.433     153.899      51.431
  C        2.768     151.618      50.613
  N        4.850     148.069      53.575
  C        3.799     148.931      53.828
  N        3.203     148.808      55.034
  N        3.373     149.827      52.979
  C        4.045     149.815      51.803
  C        5.103     149.015      51.433
  C        5.585     148.046      52.397
  O        6.533     147.284      52.233
  N        5.517     149.288      50.154
  C        4.695     150.235      49.740
  N        3.793     150.597      50.710
  O        2.583     150.232      45.276
  O        2.799     152.507      44.111
  H        2.635     154.820      51.172
  H        1.647     150.353      45.024
  H        5.144     147.403      54.269
  H        4.709     150.680      48.754
  H        2.020     151.432      51.390
  H        4.308     153.129      51.163
  H        3.430     148.093      55.707
  H        4.249     153.087      48.736
  H        2.406     149.407      55.222
  H        1.199     153.313      49.020
  H        1.268     151.926      46.900
  H        1.792     153.591      46.708
  P        4.257     155.613      48.103
  C        6.841     155.829      48.013
  O        5.709     155.431      48.758
  O        3.926     157.166      48.314
  O        4.122     155.200      46.675
  H        4.122     157.664      47.500
  H        6.673     156.788      47.515
  H        7.078     155.063      47.265
  H        7.691     155.932      48.692
  H        6.742     151.731      44.240
  H        5.835     152.974      45.067
  H        5.401     152.512      43.439

 3  4  5  6  7  8  9  10  11  12  23  26  30  31  33  0
 6-311+G(2d,p)
 ****
 35  36  37  38 0
 6-311+G(2d,p)
 ****
 1  2  13  14  15  16  17  18  19  20  21  22  24  25  27  28  29 0
 3-21G
 ****
 32  34  39  40  41  42  43  44  45  46  47  48  49 0
 3-21G
 ****


