%nproc=1
%NoSave
%Mem=1900MB
#P OB98/GEN NMR

erre ene a

0 1
  C     -466.307     437.215    -257.937
  O     -466.222     438.301    -257.033
  P     -465.056     438.260    -255.925
  C     -464.998     437.746    -253.378
  O     -465.672     437.561    -254.620
  C     -466.009     437.931    -252.237
  O     -466.742     439.168    -252.464
  C     -467.040     436.800    -252.104
  O     -467.315     436.659    -250.704
  C     -468.232     437.371    -252.846
  O     -469.456     436.713    -252.557
  C     -468.153     438.831    -252.409
  N     -471.633     442.581    -252.482
  C     -471.009     441.959    -251.462
  N     -470.085     440.969    -251.518
  C     -469.820     440.649    -252.798
  C     -470.380     441.187    -253.940
  C     -471.339     442.199    -253.748
  N     -471.982     442.835    -254.789
  N     -469.877     440.584    -255.071
  C     -469.016     439.694    -254.618
  N     -468.922     439.718    -253.255
  O     -464.920     439.796    -255.491
  O     -463.756     437.696    -256.400
  H     -469.670     436.801    -251.610
  H     -463.984     440.038    -255.341
  H     -471.284     442.282    -250.462
  H     -468.436     439.015    -255.235
  H     -468.492     438.975    -251.378
  H     -468.067     437.274    -253.918
  H     -466.680     435.844    -252.502
  H     -465.449     438.051    -251.306
  H     -464.379     438.641    -253.436
  H     -472.790     443.400    -254.549
  H     -471.914     442.400    -255.709
  H     -464.346     436.887    -253.191
  P     -467.314     435.187    -250.060
  C     -468.973     433.227    -250.147
  O     -468.719     434.562    -250.527
  O     -467.608     435.529    -248.523
  O     -466.090     434.365    -250.299
  H     -468.378     436.113    -248.425
  H     -469.996     432.964    -250.439
  H     -468.877     433.116    -249.059
  H     -468.276     432.552    -250.655
  H     -467.122     437.375    -258.612
  H     -466.469     436.309    -257.392
  H     -465.395     437.140    -258.491

 3  4  5  6  7  8  9  10  11  12  22  25  29  30  31  32 0
 6-311+G(2d,p)
 ****
 33  36  37 0
 6-311+G(2d,p)
 ****
 1  2  13  14  15  16  17  18  19  20  21  23  24  26 0
 3-21G
 ****
 27  28  34  35  38  39  40  41  42  43  44  45  46  47  48 0
 3-21G
 ****


