%nproc=1
%NoSave
%Mem=1900MB
#P OB98/GEN NMR

erre ene a

0 1
  C      369.896    -148.618     347.621
  O      368.615    -149.075     347.236
  P      368.466    -150.370     346.300
  C      369.933    -151.476     344.500
  O      369.541    -150.248     345.111
  C      371.227    -151.293     343.717
  O      372.354    -151.119     344.614
  C      371.604    -152.484     342.847
  O      370.779    -152.581     341.704
  C      373.072    -152.185     342.561
  O      373.204    -151.221     341.502
  C      373.530    -151.572     343.907
  N      374.303    -152.514     344.701
  C      375.328    -151.964     345.484
  O      375.588    -150.764     345.410
  N      376.028    -152.803     346.317
  C      375.817    -154.078     346.280
  N      376.495    -154.850     347.172
  C      374.863    -154.714     345.350
  C      374.125    -153.874     344.614
  O      367.076    -150.679     345.854
  O      369.056    -151.561     347.187
  H      368.411    -152.306     347.186
  H      372.655    -150.458     341.754
  H      374.763    -155.790     345.312
  H      373.382    -154.254     343.919
  H      374.131    -150.680     343.723
  H      373.622    -153.084     342.260
  H      371.521    -153.407     343.436
  H      371.132    -150.381     343.105
  H      377.136    -154.379     347.806
  H      369.138    -151.797     343.826
  H      376.185    -155.778     347.455
  H      370.054    -152.242     345.272
  P      370.762    -153.992     340.934
  C      372.861    -155.323     340.204
  O      372.131    -154.112     340.121
  O      369.655    -153.782     339.796
  O      370.430    -155.165     341.801
  H      369.158    -154.608     339.657
  H      373.547    -155.371     339.359
  H      372.196    -156.190     340.183
  H      373.447    -155.327     341.133
  H      369.794    -147.750     348.239
  H      370.463    -148.370     346.748
  H      370.400    -149.388     348.167

 3  4  5  6  7  8  9  10  11  12  13  24  27  28  29  30  32 0
 6-311+G(2d,p)
 ****
 34  35 0
 6-311+G(2d,p)
 ****
 1  2  14  15  16  17  18  19  20  21  22  23  25  26 0
 3-21G
 ****
 31  33  36  37  38  39  40  41  42  43  44  45  46 0
 3-21G
 ****


