%nproc=1
%NoSave
%Mem=1900MB
#P OB98/GEN NMR

erre ene a

0 1
  C       95.590    -268.836    -150.117
  O       96.559    -267.928    -149.639
  H       95.631    -268.847    -151.209
  H       94.594    -268.506    -149.807
  H       95.776    -269.846    -149.748
  P       96.962    -267.973    -148.089
  C       95.640    -265.890    -147.317
  O       95.755    -267.307    -147.265
  C       94.270    -265.429    -146.808
  O       94.283    -263.991    -146.630
  C       93.184    -265.737    -147.839
  O       91.911    -265.950    -147.235
  C       93.133    -264.469    -148.672
  O       91.903    -264.305    -149.372
  C       93.393    -263.406    -147.600
  N       92.721    -258.449    -148.559
  C       91.805    -259.382    -148.122
  N       90.537    -258.947    -147.936
  N       92.101    -260.638    -147.902
  C       93.387    -260.952    -148.204
  C       94.377    -260.116    -148.664
  C       94.048    -258.721    -148.867
  O       94.815    -257.850    -149.269
  N       95.552    -260.802    -148.873
  C       95.271    -262.043    -148.542
  N       93.970    -262.184    -148.115
  O       98.118    -266.870    -147.965
  O       97.417    -269.305    -147.577
  H       91.897    -263.406    -149.753
  H       98.695    -267.065    -147.204
  H       92.442    -257.490    -148.698
  H       95.967    -262.874    -148.587
  H       92.457    -263.142    -147.088
  H       93.928    -264.515    -149.427
  H       90.226    -258.042    -148.255
  H       93.435    -266.609    -148.451
  H       89.808    -259.662    -147.902
  H       94.063    -265.871    -145.826
  H       95.772    -265.595    -148.364
  H       96.444    -265.427    -146.740
  P       91.515    -267.453    -146.841
  C       91.383    -268.492    -149.246
  O       92.051    -268.423    -148.002
  O       89.925    -267.481    -147.007
  O       91.944    -267.845    -145.463
  H       89.493    -267.474    -146.132
  H       91.887    -269.188    -149.883
  H       91.382    -267.525    -149.704
  H       90.375    -268.815    -149.092

 6  7  8  9  10  11  12  13  14  15  26  29  33  34 0
 6-311+G(2d,p)
 ****
 36  38  39  40  41 0
 6-311+G(2d,p)
 ****
 1  2  3  4  5  16  17  18  19  20  21  22  23  24  25 0
 3-21G
 ****
 27  28  30  31  32  35  37  42  43  44  45  46  47 0
 3-21G
 ****
 48  49 0
 3-21G
 ****


