%nproc=1
%NoSave
%Mem=1900MB
#P OB98/GEN NMR

erre ene a

0 1
  C      263.595    -273.881     184.784
  O      262.615    -273.093     185.442
  H      263.084    -274.639     184.182
  H      264.221    -274.388     185.527
  H      264.206    -273.256     184.133
  P      263.153    -271.889     186.357
  C      260.798    -270.774     186.348
  O      261.868    -271.302     187.122
  C      260.189    -269.566     187.048
  O      259.377    -270.020     188.161
  C      261.213    -268.606     187.655
  O      261.778    -267.751     186.680
  C      260.357    -267.880     188.681
  O      259.623    -266.798     188.089
  C      259.398    -268.973     189.162
  N      259.444    -268.113     194.188
  C      258.927    -267.403     193.151
  N      258.945    -267.722     191.839
  C      259.562    -268.895     191.642
  C      260.142    -269.720     192.591
  C      260.069    -269.287     193.927
  N      260.632    -269.984     194.976
  N      260.725    -270.820     191.990
  C      260.492    -270.668     190.697
  N      259.788    -269.527     190.442
  O      263.507    -270.756     185.285
  O      264.317    -272.222     187.231
  H      259.188    -267.163     187.283
  H      264.456    -270.801     185.058
  H      258.449    -266.468     193.423
  H      260.812    -271.355     189.922
  H      258.364    -268.604     189.264
  H      260.981    -267.447     189.474
  H      261.992    -269.173     188.175
  H      259.534    -269.044     186.339
  H      260.034    -271.550     186.220
  H      261.187    -270.488     185.354
  H      260.556    -269.605     195.905
  H      261.191    -270.815     194.774
  P      263.346    -267.431     186.756
  C      263.870    -266.361     184.440
  O      263.631    -266.155     185.827
  O      264.013    -268.644     185.946
  O      263.891    -267.321     188.139
  H      264.358    -269.319     186.563
  H      264.042    -265.418     183.964
  H      263.018    -266.834     183.998
  H      264.730    -266.985     184.315

 6  7  8  9  10  11  12  13  14  15  25  28  32  33  34  35 0
 6-311+G(2d,p)
 ****
 36  37  40 0
 6-311+G(2d,p)
 ****
 1  2  3  4  5  16  17  18  19  20  21  22  23  24 0
 3-21G
 ****
 26  27  29  30  31  38  39 41  42  43  44  45  46  47  48 0
 3-21G
 ****


