%nproc=1
%NoSave
%Mem=1900MB
#P OB98/GEN NMR

erre ene a

0 1
  C      176.019    -395.679    -243.359
  O      174.922    -394.779    -243.467
  P      174.168    -394.681    -244.881
  C      171.747    -394.554    -243.948
  O      172.717    -395.326    -244.645
  C      170.668    -395.458    -243.358
  O      171.270    -396.536    -242.605
  C      169.714    -394.767    -242.386
  O      168.682    -394.059    -243.065
  C      169.144    -395.951    -241.642
  O      168.117    -396.585    -242.434
  C      170.362    -396.878    -241.520
  N      170.048    -397.716    -236.485
  C      169.157    -397.895    -237.479
  N      169.309    -397.643    -238.796
  C      170.526    -397.111    -239.041
  C      171.527    -396.829    -238.109
  C      171.254    -397.170    -236.774
  N      172.170    -397.007    -235.757
  N      172.627    -396.286    -238.734
  C      172.308    -396.231    -240.010
  N      171.047    -396.737    -240.249
  O      174.920    -395.792    -245.771
  O      174.191    -393.338    -245.522
  H      167.974    -397.474    -242.057
  H      174.818    -395.583    -246.715
  H      168.202    -398.315    -237.192
  H      172.951    -395.871    -240.801
  H      170.099    -397.940    -241.638
  H      168.675    -395.676    -240.689
  H      170.264    -394.115    -241.689
  H      170.106    -395.907    -244.189
  H      171.284    -393.851    -244.643
  H      171.969    -397.444    -234.867
  H      173.132    -396.793    -236.021
  H      172.248    -393.986    -243.143
  P      168.767    -392.463    -243.058
  C      168.184    -391.828    -245.507
  O      169.200    -392.041    -244.548
  O      170.080    -392.170    -242.183
  O      167.557    -391.783    -242.510
  H      170.023    -391.286    -241.763
  H      168.613    -391.268    -246.353
  H      167.363    -391.245    -245.089
  H      167.812    -392.781    -245.887
  H      176.419    -395.637    -242.367
  H      176.778    -395.403    -244.061
  H      175.686    -396.674    -243.567

 3  4  5  6  7  8  9  10  11  12  22  25  29  30  31  32 0
 6-311+G(2d,p)
 ****
 33  36  37 0
 6-311+G(2d,p)
 ****
 1  2  13  14  15  16  17  18  19  20  21  23  24  26 0
 3-21G
 ****
 27  28  34  35  38  39  40  41  42  43  44  45  46  47  48 0
 3-21G
 ****


