%nproc=1
%NoSave
%Mem=1900MB
#P OB98/GEN NMR

erre ene a

0 1
  C      147.675    -899.150       0.698
  O      148.693    -898.180       0.453
  P      150.262    -898.490       0.423
  C      151.110    -897.610       2.752
  O      150.753    -898.710       1.936
  C      151.718    -898.070       4.080
  O      152.930    -898.850       3.801
  C      152.145    -896.890       4.979
  O      151.834    -897.090       6.355
  C      153.627    -896.720       4.619
  O      154.346    -896.010       5.608
  C      154.070    -898.150       4.363
  N      159.095    -898.920       4.002
  C      158.330    -898.750       5.132
  N      158.964    -898.790       6.323
  N      157.026    -898.560       5.100
  C      156.525    -898.490       3.838
  C      157.206    -898.600       2.641
  C      158.618    -898.880       2.697
  O      159.350    -899.030       1.728
  N      156.339    -898.460       1.562
  C      155.176    -898.220       2.107
  N      155.225    -898.250       3.485
  O      151.078    -897.590      -0.431
  O      150.351    -899.970      -0.206
  H      154.118    -896.400       6.483
  H      151.186    -900.000      -0.696
  H      160.103    -899.090       4.071
  H      154.259    -898.070       1.558
  H      154.344    -898.670       5.297
  H      153.674    -896.130       3.699
  H      159.973    -898.800       6.394
  H      151.594    -895.980       4.706
  H      158.433    -898.450       7.110
  H      151.038    -898.720       4.588
  H      150.193    -897.050       2.949
  H      151.797    -896.930       2.207
  P      150.650    -896.400       7.214
  C      151.612    -894.330       8.392
  O      150.896    -894.840       7.252
  O      150.936    -896.870       8.707
  O      149.274    -896.810       6.777
  H      150.166    -897.400       9.047
  H      151.481    -893.260       8.435
  H      152.663    -894.560       8.301
  H      151.209    -894.780       9.305
  H      146.716    -898.677       0.662
  H      147.822    -899.585       1.664
  H      147.724    -899.915      -0.049

 3  4  5  6  7  8  9  10  11  12  23  26  30  31 0
 6-311+G(2d,p)
 ****
 33  35  36  37  38 0
 6-311+G(2d,p)
 ****
 1  2  13  14  15  16  17  18  19  20  21  22  24  25 0
 3-21G
 ****
 27  28  29  32  34  39  40  41  42  43  44  45  46  47  48  49 0
 3-21G
 ****


