%nproc=1
%NoSave
%Mem=1900MB
#P OB98/GEN NMR

erre ene a

0 1
  C       74.972     -44.638    -390.195
  O       75.583     -43.907    -391.234
  H       73.907     -44.381    -390.171
  H       75.410     -44.382    -389.230
  H       75.069     -45.713    -390.377
  P       77.185     -43.946    -391.377
  C       78.993     -42.545    -390.217
  O       77.685     -42.533    -390.775
  C       79.208     -41.361    -389.268
  O       79.419     -40.149    -390.040
  C       78.024     -41.100    -388.324
  O       78.514     -40.907    -386.993
  C       77.410     -39.813    -388.857
  O       76.679     -39.111    -387.856
  C       78.651     -39.105    -389.413
  N       78.322     -38.038    -390.351
  C       79.036     -36.840    -390.210
  O       79.860     -36.714    -389.307
  N       78.766     -35.808    -391.073
  C       77.832     -35.927    -391.960
  N       77.608     -34.866    -392.776
  C       77.020     -37.163    -392.115
  C       77.326     -38.168    -391.293
  O       77.681     -44.254    -392.747
  O       77.661     -44.996    -390.267
  H       75.959     -39.701    -387.527
  H       78.571     -45.317    -390.490
  H       76.251     -37.213    -392.865
  H       76.791     -39.106    -391.340
  H       79.253     -38.679    -388.598
  H       76.721     -40.057    -389.678
  H       77.301     -41.912    -388.307
  H       80.134     -41.528    -388.707
  H       78.186     -34.041    -392.636
  H       79.726     -42.516    -391.034
  H       76.904     -34.847    -393.502
  H       79.121     -43.477    -389.654
  P       77.797     -41.767    -385.840
  C       75.575     -41.603    -384.509
  O       76.531     -40.920    -385.318
  O       78.837     -41.680    -384.624
  O       77.510     -43.176    -386.235
  H       79.361     -42.503    -384.575
  H       74.792     -40.927    -384.234
  H       76.054     -41.972    -383.626
  H       75.162     -42.422    -385.060

 6  7  8  9  10  11  12  13  14  15  16  26  30  31  32  33  35 0
 6-311+G(2d,p)
 ****
 37  38 0
 6-311+G(2d,p)
 ****
 1  2  3  4  5  17  18  19  20  21  22  23  24  25 0
 3-21G
 ****
 27  28  29  34  36  39  40  41  42  43  44  45  46 0
 3-21G
 ****


