%nproc=1
%NoSave
%Mem=1900MB
#P OB98/GEN NMR

erre ene a

0 1
  C     -438.568     259.339    -156.717
  O     -437.984     259.676    -157.961
  H     -439.148     258.420    -156.840
  H     -439.242     260.137    -156.395
  H     -437.794     259.173    -155.963
  P     -436.939     260.896    -157.959
  C     -434.763     259.430    -157.912
  O     -435.623     260.330    -157.238
  C     -433.688     258.898    -156.958
  O     -432.826     259.997    -156.574
  C     -434.248     258.276    -155.680
  O     -433.436     257.154    -155.327
  C     -434.093     259.379    -154.649
  O     -434.042     258.859    -153.320
  C     -432.814     260.075    -155.135
  N     -432.726     261.464    -154.673
  C     -432.065     261.680    -153.462
  O     -431.612     260.730    -152.823
  N     -431.975     262.959    -152.976
  C     -432.557     263.929    -153.614
  N     -432.451     265.176    -153.069
  C     -433.313     263.738    -154.868
  C     -433.345     262.492    -155.340
  O     -437.583     261.875    -156.869
  O     -436.721     261.516    -159.299
  H     -434.102     259.615    -152.696
  H     -437.930     261.412    -156.090
  H     -433.793     264.575    -155.352
  H     -433.873     262.263    -156.262
  H     -431.925     259.538    -154.778
  H     -434.944     260.068    -154.706
  H     -435.289     257.959    -155.773
  H     -433.063     258.188    -157.507
  H     -431.942     265.261    -152.199
  H     -434.284     259.927    -158.760
  H     -432.906     265.990    -153.452
  H     -435.370     258.604    -158.294
  P     -433.470     255.843    -156.249
  C     -430.953     255.622    -156.760
  O     -432.242     255.903    -157.277
  O     -434.786     255.508    -156.852
  O     -433.005     254.687    -155.233
  H     -433.530     253.887    -155.429
  H     -430.230     255.696    -157.545
  H     -430.939     254.632    -156.355
  H     -430.716     256.326    -155.990

 6  7  8  9  10  11  12  13  14  15  16  26  30  31  32  33  35 0
 6-311+G(2d,p)
 ****
 37  38 0
 6-311+G(2d,p)
 ****
 1  2  3  4  5  17  18  19  20  21  22  23  24  25 0
 3-21G
 ****
 27  28  29  34  36  39  40  41  42  43  44  45  46 0
 3-21G
 ****


