%nproc=1
%NoSave
%Mem=1900MB
#P OB98/GEN NMR

erre ene a

0 1
  C      -70.179     229.196    -302.507
  O      -69.901     228.946    -301.131
  P      -68.377     229.035    -300.635
  C      -68.536     231.115    -298.999
  O      -68.319     229.735    -299.198
  C      -69.120     231.339    -297.592
  O      -70.517     230.969    -297.567
  C      -68.420     230.521    -296.509
  O      -67.274     231.182    -295.999
  C      -69.528     230.339    -295.488
  O      -69.691     231.540    -294.715
  C      -70.755     230.122    -296.411
  N      -71.028     228.740    -296.882
  C      -71.515     227.789    -295.988
  O      -71.732     228.003    -294.801
  N      -71.752     226.544    -296.518
  C      -71.732     226.205    -297.839
  O      -72.018     225.093    -298.261
  C      -71.363     227.287    -298.753
  C      -71.018     228.479    -298.249
  O      -67.722     230.118    -301.612
  O      -67.640     227.729    -300.661
  H      -69.840     232.268    -295.337
  H      -67.027     229.699    -302.162
  H      -72.037     225.825    -295.874
  H      -71.376     227.082    -299.821
  H      -70.743     229.290    -298.919
  H      -71.668     230.474    -295.923
  H      -69.287     229.551    -294.779
  H      -68.153     229.530    -296.895
  H      -69.049     232.408    -297.353
  H      -69.216     231.516    -299.755
  H      -67.588     231.656    -299.106
  P      -66.310     230.430    -294.968
  C      -64.158     230.513    -296.364
  O      -64.846     231.029    -295.237
  O      -66.405     228.938    -294.945
  O      -66.695     231.079    -293.548
  H      -67.347     230.511    -293.078
  H      -63.254     231.111    -296.522
  H      -64.782     230.571    -297.256
  H      -63.868     229.478    -296.182
  H      -71.230     229.100    -302.682
  H      -69.651     228.489    -303.112
  H      -69.864     230.187    -302.760

 3  4  5  6  7  8  9  10  11  12  13  23  28  29  30  31  32 0
 6-311+G(2d,p)
 ****
 33  34 0
 6-311+G(2d,p)
 ****
 1  2  14  15  16  17  18  19  20  21  22  24  25  26  27 0
 3-21G
 ****
 35  36  37  38  39  40  41  42  43  44  45 0
 3-21G
 ****


