%nproc=1
%NoSave
%Mem=1900MB
#P OB98/GEN NMR

erre ene a

0 1
  C     -143.562     273.242     474.728
  O     -142.613     272.224     475.054
  P     -143.197     270.811     475.553
  C     -142.039     269.218     473.851
  O     -143.242     269.824     474.280
  C     -141.661     269.687     472.450
  O     -141.374     271.089     472.425
  C     -140.419     269.016     471.884
  O     -140.697     267.724     471.370
  C     -140.059     269.969     470.750
  O     -140.850     269.672     469.587
  C     -140.457     271.343     471.332
  N     -136.074     273.611     470.161
  C     -136.963     272.926     469.350
  N     -136.652     272.861     468.038
  N     -138.065     272.354     469.791
  C     -138.256     272.527     471.122
  C     -137.447     273.187     472.026
  C     -136.223     273.786     471.532
  O     -135.388     274.371     472.211
  N     -137.987     273.156     473.283
  C     -139.129     272.510     473.138
  N     -139.337     272.100     471.843
  O     -144.744     271.143     475.817
  O     -142.524     270.275     476.771
  H     -140.548     270.276     468.872
  H     -145.106     270.542     476.500
  H     -135.247     274.017     469.770
  H     -139.850     272.326     473.935
  H     -140.983     271.956     470.603
  H     -138.999     269.900     470.446
  H     -135.868     273.337     467.619
  H     -139.609     268.993     472.620
  H     -137.318     272.395     467.425
  H     -142.522     269.493     471.779
  H     -142.155     268.122     473.856
  H     -141.245     269.451     474.574
  P     -141.028     266.564     472.436
  C     -143.213     265.849     471.219
  O     -142.627     266.388     472.392
  O     -140.763     267.282     473.847
  O     -140.234     265.320     472.276
  H     -140.498     266.619     474.508
  H     -142.649     264.997     470.842
  H     -143.270     266.626     470.447
  H     -144.222     265.512     471.454
  H     -143.045     274.124     474.413
  H     -144.156     273.465     475.590
  H     -144.196     272.899     473.937

 3  4  5  6  7  8  9  10  11  12  23  26  30  31  33  0
 6-311+G(2d,p)
 ****
 35  36  37  38 0
 6-311+G(2d,p)
 ****
 1  2  13  14  15  16  17  18  19  20  21  22  24  25  27  28  29 0
 3-21G
 ****
 32  34  39  40  41  42  43  44  45  46  47  48  49 0
 3-21G
 ****


