%nproc=1
%NoSave
%Mem=1900MB
#P OB98/GEN NMR

erre ene a

0 1
  C      184.359     176.970    -177.830
  O      182.945     177.140    -177.781
  P      182.180     178.500    -178.114
  C      180.492     178.542    -176.108
  O      180.703     178.404    -177.505
  C      179.027     178.324    -175.694
  O      178.206     179.386    -176.247
  C      178.492     177.016    -176.278
  O      178.738     175.790    -175.616
  C      177.020     177.291    -176.551
  O      176.178     176.879    -175.473
  C      176.969     178.811    -176.718
  N      173.561     179.312    -180.499
  C      173.398     178.761    -179.245
  N      172.187     178.225    -178.975
  N      174.342     178.718    -178.344
  C      175.527     179.207    -178.775
  C      175.816     179.763    -179.998
  C      174.748     179.859    -180.971
  O      174.836     180.349    -182.091
  N      177.136     180.131    -180.084
  C      177.646     179.777    -178.923
  N      176.706     179.216    -178.088
  O      182.301     178.980    -179.521
  O      182.914     179.579    -177.166
  H      176.311     175.923    -175.337
  H      182.897     180.430    -177.649
  H      172.793     179.341    -181.146
  H      178.683     179.907    -178.634
  H      176.171     179.248    -176.106
  H      176.683     176.736    -177.437
  H      171.460     178.119    -179.665
  H      178.955     176.895    -177.267
  H      172.129     177.629    -178.146
  H      178.914     178.392    -174.609
  H      180.822     179.548    -175.833
  H      181.133     177.847    -175.564
  P      180.008     174.838    -175.828
  C      178.860     172.639    -175.188
  O      179.855     173.585    -174.842
  O      181.216     175.655    -175.168
  O      180.311     174.493    -177.248
  H      182.072     175.294    -175.463
  H      178.638     172.022    -174.314
  H      179.229     171.996    -175.992
  H      177.941     173.139    -175.512
  H      184.607     175.964    -177.562
  H      184.824     177.647    -177.144
  H      184.708     177.171    -178.821

 3  4  5  6  7  8  9  10  11  12  23  26  30  31 0
 6-311+G(2d,p)
 ****
 33  35  36  37  38 0
 6-311+G(2d,p)
 ****
 1  2  13  14  15  16  17  18  19  20  21  22  24  25 0
 3-21G
 ****
 27  28  29  32  34  39  40  41  42  43  44  45  46  47  48  49 0
 3-21G
 ****


