%nproc=1
%NoSave
%Mem=1900MB
#P OB98/GEN NMR

erre ene a

0 1
  C     -362.384     190.976      86.800
  O     -362.486     189.746      86.100
  P     -361.159     188.858      85.973
  C     -361.208     188.958      83.368
  O     -360.483     189.225      84.566
  C     -360.509     189.600      82.175
  O     -360.529     191.036      82.304
  C     -359.038     189.226      82.029
  O     -358.895     187.915      81.503
  C     -358.563     190.335      81.093
  O     -358.944     190.051      79.736
  C     -359.349     191.551      81.626
  N     -357.049     196.073      82.334
  C     -357.704     195.551      81.271
  N     -358.270     194.335      81.144
  C     -358.115     193.622      82.282
  C     -357.451     194.010      83.438
  C     -356.907     195.304      83.438
  N     -356.237     195.833      84.522
  N     -357.474     193.013      84.380
  C     -358.156     192.035      83.815
  N     -358.579     192.357      82.548
  O     -361.724     187.378      85.742
  O     -360.243     188.921      87.161
  H     -358.587     190.769      79.180
  H     -361.141     186.709      86.152
  H     -357.793     196.200      80.399
  H     -358.375     191.075      84.270
  H     -359.693     192.210      80.816
  H     -357.473     190.473      81.105
  H     -358.526     189.293      82.990
  H     -361.062     189.328      81.268
  H     -362.219     189.377      83.456
  H     -355.744     196.702      84.390
  H     -356.010     195.208      85.289
  H     -361.300     187.876      83.243
  P     -357.451     187.226      81.625
  C     -357.399     186.589      79.126
  O     -356.832     187.388      80.150
  O     -357.836     185.673      81.674
  O     -356.615     187.719      82.751
  H     -358.460     185.437      80.971
  H     -356.929     186.837      78.179
  H     -358.468     186.788      79.048
  H     -357.227     185.526      79.349
  H     -363.337     191.462      86.808
  H     -361.667     191.605      86.314
  H     -362.070     190.789      87.806

 3  4  5  6  7  8  9  10  11  12  22  25  29  30  31  32 0
 6-311+G(2d,p)
 ****
 33  36  37 0
 6-311+G(2d,p)
 ****
 1  2  13  14  15  16  17  18  19  20  21  23  24  26 0
 3-21G
 ****
 27  28  34  35  38  39  40  41  42  43  44  45  46  47  48 0
 3-21G
 ****


