%nproc=1
%NoSave
%Mem=1900MB
#P OB98/GEN NMR

erre ene a

0 1
  C     -558.038      54.388     270.063
  O     -557.023      53.979     269.159
  P     -555.587      53.618     269.770
  C     -555.747      51.036     269.439
  O     -555.701      52.129     270.360
  C     -554.570      50.097     269.681
  O     -554.543      49.639     271.047
  C     -554.599      48.831     268.830
  O     -554.111      49.046     267.514
  C     -553.650      47.935     269.611
  O     -552.283      48.278     269.294
  C     -553.972      48.309     271.063
  N     -554.520      43.621     272.884
  C     -553.369      44.287     272.499
  N     -552.220      43.583     272.547
  N     -553.359      45.532     272.099
  C     -554.583      46.109     272.097
  C     -555.791      45.545     272.461
  C     -555.793      44.166     272.883
  O     -556.782      43.499     273.192
  N     -556.819      46.448     272.331
  C     -556.243      47.535     271.893
  N     -554.894      47.376     271.683
  O     -555.495      54.523     271.088
  O     -554.433      53.858     268.853
  H     -552.231      49.253     269.349
  H     -554.575      54.588     271.393
  H     -554.474      42.658     273.183
  H     -556.762      48.475     271.689
  H     -553.065      48.356     271.683
  H     -553.778      46.877     269.375
  H     -552.173      42.606     272.782
  H     -555.602      48.382     268.832
  H     -551.376      44.034     272.204
  H     -553.646      50.656     269.497
  H     -555.705      51.426     268.420
  H     -556.699      50.505     269.565
  P     -554.753      48.142     266.345
  C     -556.643      49.867     265.931
  O     -556.306      48.543     266.285
  O     -554.764      46.672     267.005
  O     -554.002      48.184     265.051
  H     -554.726      45.995     266.299
  H     -557.711      49.905     265.674
  H     -556.072      50.200     265.054
  H     -556.457      50.543     266.766
  H     -558.937      54.595     269.520
  H     -557.721      55.270     270.579
  H     -558.221      53.607     270.771

 3  4  5  6  7  8  9  10  11  12  23  26  30  31 0
 6-311+G(2d,p)
 ****
 33  35  36  37  38 0
 6-311+G(2d,p)
 ****
 1  2  13  14  15  16  17  18  19  20  21  22  24  25 0
 3-21G
 ****
 27  28  29  32  34  39  40  41  42  43  44  45  46  47  48  49 0
 3-21G
 ****


