%nproc=1
%NoSave
%Mem=1900MB
#P OB98/GEN NMR

erre ene a

0 1
  C       62.105     216.600      96.158
  O       61.951     215.339      96.815
  P       61.812     215.370      98.416
  C       63.719     213.911      99.395
  O       62.351     213.976      99.005
  C       64.387     212.617      98.910
  O       63.554     211.464      99.191
  C       64.685     212.610      97.407
  O       65.892     211.871      97.214
  C       63.522     211.812      96.834
  O       63.845     211.289      95.552
  C       63.324     210.769      97.950
  N       62.006     210.137      97.911
  C       61.775     209.211      96.894
  O       62.635     209.003      96.030
  N       60.563     208.565      96.844
  C       59.641     208.865      97.707
  N       58.461     208.195      97.612
  C       59.825     209.883      98.768
  C       61.017     210.463      98.812
  O       60.229     215.295      98.650
  O       62.396     216.595      99.041
  H       63.042     210.866      95.185
  H       59.948     215.992      99.270
  H       59.023     210.106      99.458
  H       61.248     211.220      99.548
  H       64.081     209.971      97.867
  H       62.634     212.448      96.744
  H       64.787     213.610      96.978
  H       65.324     212.492      99.469
  H       58.379     207.501      96.878
  H       63.789     213.965     100.482
  H       57.682     208.348      98.227
  H       64.240     214.792      99.013
  P       67.287     212.617      97.456
  C       67.679     212.887      94.928
  O       68.152     212.310      96.139
  O       67.993     211.635      98.517
  O       67.266     214.025      97.942
  H       68.836     212.024      98.810
  H       68.418     212.709      94.146
  H       67.540     213.966      95.049
  H       66.736     212.418      94.638
  H       62.186     216.445      95.102
  H       62.990     217.083      96.517
  H       61.254     217.215      96.363

 3  4  5  6  7  8  9  10  11  12  13  21  23  27  28  29  30  32 0
 6-311+G(2d,p)
 ****
 34  35 0
 6-311+G(2d,p)
 ****
 1  2  14  15  16  17  18  19  20  22  24  25  26 0
 3-21G
 ****
 31  33  36  37  38  39  40  41  42  43  44  45  46 0
 3-21G
 ****


