%nproc=1
%NoSave
%Mem=1900MB
#P OB98/GEN NMR

erre ene a

0 1
  C     -415.756     571.428     670.422
  O     -415.912     572.403     671.430
  H     -415.443     570.487     670.899
  H     -414.980     571.727     669.713
  H     -416.703     571.257     669.901
  P     -416.326     573.896     671.015
  C     -418.526     575.052     670.368
  O     -417.873     573.804     670.589
  C     -419.680     574.907     669.378
  O     -419.157     574.546     668.069
  C     -420.702     573.818     669.784
  O     -422.026     574.338     669.647
  C     -420.480     572.720     668.755
  O     -421.620     571.885     668.570
  C     -420.049     573.544     667.534
  N     -419.413     572.724     666.510
  C     -420.255     572.189     665.531
  O     -421.463     572.422     665.561
  N     -419.723     571.358     664.583
  C     -418.468     571.052     664.635
  N     -418.007     570.187     663.681
  C     -417.540     571.571     665.670
  C     -418.074     572.394     666.562
  O     -415.428     574.540     670.012
  O     -416.387     574.707     672.402
  H     -421.350     571.093     668.069
  H     -416.287     575.665     672.214
  H     -416.493     571.269     665.668
  H     -417.478     572.822     667.360
  H     -420.912     574.051     667.082
  H     -419.642     572.083     669.081
  H     -420.558     573.453     670.801
  H     -420.165     575.880     669.260
  H     -418.674     569.852     662.992
  H     -417.784     575.773     669.995
  H     -417.052     569.857     663.630
  H     -418.920     575.414     671.324
  P     -422.557     575.230     670.868
  C     -421.561     577.541     671.541
  O     -422.212     576.777     670.545
  O     -421.567     574.852     672.068
  O     -423.990     574.964     671.234
  H     -422.044     574.341     672.747
  H     -421.403     578.536     671.181
  H     -420.618     577.092     671.775
  H     -422.169     577.573     672.421

 6  7  8  9  10  11  12  13  14  15  16  26  30  31  32  33  35 0
 6-311+G(2d,p)
 ****
 37  38 0
 6-311+G(2d,p)
 ****
 1  2  3  4  5  17  18  19  20  21  22  23  24  25 0
 3-21G
 ****
 27  28  29  34  36  39  40  41  42  43  44  45  46 0
 3-21G
 ****


