%nproc=1
%NoSave
%Mem=1900MB
#P OB98/GEN NMR

erre ene a

0 1
  C      158.515    -219.579     248.607
  O      157.753    -220.746     248.376
  H      157.858    -218.808     249.015
  H      158.951    -219.210     247.674
  H      159.309    -219.782     249.333
  P      158.469    -221.997     247.666
  C      156.791    -221.909     245.693
  O      157.304    -222.666     246.779
  C      155.686    -222.691     244.983
  O      155.104    -221.910     243.916
  C      156.142    -223.985     244.312
  O      156.403    -225.035     245.233
  C      154.932    -224.267     243.433
  O      153.862    -224.786     244.241
  C      154.596    -222.842     242.919
  N      155.180    -222.559     241.608
  C      154.373    -222.818     240.493
  O      153.235    -223.261     240.635
  N      154.887    -222.603     239.238
  C      156.110    -222.183     239.103
  N      156.589    -222.032     237.837
  C      156.991    -221.880     240.251
  C      156.470    -222.095     241.459
  O      159.206    -222.936     248.565
  O      159.394    -221.337     246.535
  H      154.166    -225.632     244.610
  H      159.868    -222.071     246.074
  H      158.004    -221.543     240.085
  H      157.062    -221.910     242.352
  H      153.513    -222.697     242.863
  H      155.134    -224.999     242.646
  H      157.009    -223.804     243.667
  H      154.888    -222.874     245.716
  H      155.970    -222.288     237.077
  H      157.618    -221.690     245.010
  H      157.585    -221.983     237.651
  H      156.368    -220.967     246.054
  P      157.801    -225.812     245.106
  C      157.273    -227.327     243.049
  O      157.474    -227.242     244.449
  O      158.154    -226.163     246.623
  O      158.901    -225.064     244.416
  H      158.736    -225.482     247.018
  H      157.067    -228.342     242.779
  H      158.154    -226.995     242.541
  H      156.446    -226.709     242.769

 6  7  8  9  10  11  12  13  14  15  16  26  30  31  32  33  35 0
 6-311+G(2d,p)
 ****
 37  38 0
 6-311+G(2d,p)
 ****
 1  2  3  4  5  17  18  19  20  21  22  23  24  25 0
 3-21G
 ****
 27  28  29  34  36  39  40  41  42  43  44  45  46 0
 3-21G
 ****


