%nproc=1
%NoSave
%Mem=1900MB
#P OB98/GEN NMR

erre ene a

0 1
  C     -177.014      -0.410     -64.763
  O     -176.072       0.557     -64.342
  H     -176.753      -1.375     -64.318
  H     -176.989      -0.508     -65.854
  H     -178.020      -0.129     -64.439
  P     -176.302       2.060     -64.854
  C     -175.080       3.411     -66.715
  O     -175.604       2.155     -66.298
  C     -174.977       3.450     -68.239
  O     -176.274       3.162     -68.818
  C     -174.569       4.803     -68.804
  O     -173.171       5.022     -68.707
  C     -175.065       4.688     -70.240
  O     -174.124       3.993     -71.068
  C     -176.341       3.850     -70.085
  N     -180.795       4.470     -72.493
  C     -179.833       3.524     -72.599
  N     -178.678       3.420     -71.904
  C     -178.574       4.426     -71.015
  C     -179.468       5.460     -70.797
  C     -180.633       5.460     -71.584
  N     -181.595       6.444     -71.501
  N     -178.987       6.323     -69.829
  C     -177.826       5.809     -69.464
  N     -177.540       4.662     -70.147
  O     -175.329       2.910     -63.906
  O     -177.710       2.548     -64.795
  H     -173.249       4.391     -70.893
  H     -175.835       3.256     -63.145
  H     -180.013       2.754     -73.345
  H     -177.159       6.239     -68.722
  H     -176.428       3.081     -70.863
  H     -175.226       5.671     -70.690
  H     -175.124       5.609     -68.306
  H     -174.282       2.664     -68.560
  H     -174.085       3.548     -66.283
  H     -175.741       4.208     -66.352
  H     -182.395       6.388     -72.115
  H     -181.429       7.239     -70.906
  P     -172.565       6.379     -69.305
  C     -171.743       7.208     -71.629
  O     -172.373       6.176     -70.886
  O     -171.066       6.389     -68.735
  O     -173.315       7.615     -68.925
  H     -171.000       6.981     -67.962
  H     -171.690       6.924     -72.659
  H     -170.754       7.367     -71.252
  H     -172.309       8.111     -71.536

 6  7  8  9  10  11  12  13  14  15  25  28  32  33  34  35 0
 6-311+G(2d,p)
 ****
 36  37  40 0
 6-311+G(2d,p)
 ****
 1  2  3  4  5  16  17  18  19  20  21  22  23  24 0
 3-21G
 ****
 26  27  29  30  31  38  39 41  42  43  44  45  46  47  48 0
 3-21G
 ****


