%nproc=1
%NoSave
%Mem=1900MB
#P OB98/GEN NMR

erre ene a

0 1
  C      638.855     -79.362     -44.480
  O      638.780     -80.061     -45.707
  H      637.959     -79.583     -43.891
  H      638.900     -78.283     -44.661
  H      639.737     -79.682     -43.913
  P      639.998     -79.845     -46.728
  C      638.563     -80.911     -48.611
  O      639.347     -79.799     -48.195
  C      637.462     -80.455     -49.563
  O      636.485     -79.652     -48.863
  C      637.945     -79.620     -50.743
  O      638.432     -80.444     -51.787
  C      636.674     -78.875     -51.123
  O      635.805     -79.696     -51.927
  C      636.046     -78.586     -49.755
  N      634.353     -73.946     -48.689
  C      633.695     -75.042     -49.211
  N      632.398     -74.854     -49.545
  N      634.252     -76.212     -49.394
  C      635.558     -76.237     -49.046
  C      636.323     -75.226     -48.505
  C      635.683     -73.949     -48.278
  O      636.199     -72.959     -47.765
  N      637.607     -75.643     -48.270
  C      637.628     -76.893     -48.698
  N      636.414     -77.295     -49.194
  O      640.753     -81.259     -46.711
  O      640.923     -78.725     -46.392
  H      635.044     -79.168     -52.217
  H      641.706     -81.115     -46.875
  H      633.869     -73.081     -48.558
  H      638.493     -77.543     -48.671
  H      634.952     -78.618     -49.785
  H      636.893     -77.983     -51.713
  H      632.027     -73.932     -49.735
  H      638.710     -78.899     -50.420
  H      631.909     -75.645     -49.944
  H      636.940     -81.358     -49.919
  H      638.111     -81.376     -47.731
  H      639.211     -81.641     -49.109
  P      639.765     -79.974     -52.549
  C      639.405     -81.819     -54.352
  O      639.593     -80.437     -54.082
  O      640.885     -80.967     -51.994
  O      640.125     -78.541     -52.349
  H      641.771     -80.606     -52.175
  H      639.307     -81.966     -55.407
  H      638.518     -82.161     -53.861
  H      640.248     -82.371     -53.991

 6  7  8  9  10  11  12  13  14  15  26  29  33  34 0
 6-311+G(2d,p)
 ****
 36  38  39  40  41 0
 6-311+G(2d,p)
 ****
 1  2  3  4  5  16  17  18  19  20  21  22  23  24  25 0
 3-21G
 ****
 27  28  30  31  32  35  37  42  43  44  45  46  47 0
 3-21G
 ****
 48  49 0
 3-21G
 ****


