%nproc=1
%NoSave
%Mem=1900MB
#P OB98/GEN NMR

erre ene a

0 1
  C       68.656     105.751      96.848
  O       69.031     106.892      97.628
  P       68.226     108.278      97.540
  C       69.706     109.396      95.765
  O       68.397     108.937      96.082
  C       69.795     110.061      94.384
  O       69.775     109.066      93.324
  C       68.670     111.057      94.072
  O       69.246     112.047      93.217
  C       67.685     110.194      93.302
  O       66.757     110.944      92.531
  C       68.645     109.345      92.477
  N       66.571     106.964      88.446
  C       67.259     108.119      88.547
  N       67.812     108.669      89.646
  C       67.637     107.879      90.718
  C       66.965     106.668      90.766
  C       66.402     106.213      89.560
  N       65.660     105.059      89.459
  N       66.962     106.158      92.050
  C       67.613     107.055      92.765
  N       68.043     108.112      92.005
  O       68.505     109.221      98.667
  O       66.685     107.840      97.567
  H       66.080     110.333      92.189
  H       66.201     108.414      98.190
  H       67.376     108.682      87.625
  H       67.781     107.002      93.832
  H       69.013     109.896      91.602
  H       67.111     109.585      94.010
  H       68.233     111.514      94.962
  H       70.770     110.560      94.321
  H       70.393     108.543      95.800
  H       65.219     104.865      88.573
  H       65.416     104.556      90.299
  H       70.023     110.110      96.534
  P       69.511     113.544      93.719
  C       67.364     114.460      92.674
  O       68.078     114.238      93.876
  O       70.494     114.316      92.903
  O       70.009     113.378      95.234
  H       70.474     114.189      95.514
  H       67.787     115.322      92.150
  H       66.317     114.666      92.914
  H       67.410     113.581      92.024
  H       69.321     104.940      97.059
  H       68.711     105.996      95.808
  H       67.655     105.464      97.094

 3  4  5  6  7  8  9  10  11  12  22  25  29  30  31  32 0
 6-311+G(2d,p)
 ****
 33  36  37 0
 6-311+G(2d,p)
 ****
 1  2  13  14  15  16  17  18  19  20  21  23  24  26 0
 3-21G
 ****
 27  28  34  35  38  39  40  41  42  43  44  45  46  47  48 0
 3-21G
 ****


