%nproc=1
%NoSave
%Mem=1900MB
#P OB98/GEN NMR

erre ene a

0 1
  C      142.567     229.010     -17.116
  O      141.888     228.461     -16.004
  H      143.125     229.889     -16.785
  H      141.852     229.313     -17.887
  H      143.269     228.278     -17.523
  P      140.974     227.172     -16.285
  C      138.623     228.227     -16.277
  O      139.701     227.754     -17.075
  C      137.311     228.172     -17.063
  O      137.353     229.185     -18.100
  C      137.064     226.822     -17.739
  O      135.674     226.510     -17.669
  C      137.457     227.071     -19.185
  O      136.799     226.186     -20.088
  C      137.087     228.543     -19.359
  N      137.073     229.787     -24.306
  C      136.113     229.293     -23.496
  N      136.197     229.005     -22.180
  C      137.414     229.322     -21.701
  C      138.492     229.828     -22.405
  C      138.290     230.057     -23.778
  N      139.271     230.536     -24.615
  N      139.584     229.980     -21.572
  C      139.166     229.586     -20.384
  N      137.865     229.163     -20.417
  O      140.658     226.330     -15.096
  O      141.794     226.440     -17.446
  H      137.264     225.325     -20.069
  H      142.108     227.074     -18.117
  H      135.152     229.098     -23.967
  H      139.766     229.573     -19.479
  H      136.028     228.684     -19.608
  H      138.539     226.927     -19.302
  H      137.647     226.016     -17.292
  H      136.488     228.440     -16.392
  H      138.814     229.258     -15.957
  H      139.036     230.685     -25.584
  H      140.179     230.761     -24.236
  H      138.559     227.594     -15.388
  P      135.197     225.375     -16.642
  C      135.329     223.331     -18.212
  O      135.873     223.983     -17.068
  O      133.732     225.321     -16.364
  O      136.013     225.752     -15.312
  H      135.445     225.581     -14.534
  H      135.862     222.421     -18.391
  H      135.420     223.971     -19.064
  H      134.296     223.112     -18.040

 6  7  8  9  10  11  12  13  14  15  25  28  32  33  34  35 0
 6-311+G(2d,p)
 ****
 36  39  40 0
 6-311+G(2d,p)
 ****
 1  2  3  4  5  16  17  18  19  20  21  22  23  24 0
 3-21G
 ****
 26  27  29  30  31  37  38  41  42  43  44  45  46  47 0
 3-21G
 ****
 48 0
 3-21G
 ****


