%nproc=1
%NoSave
%Mem=1900MB
#P OB98/GEN NMR

erre ene a

0 1
  C     -123.792    -294.923     422.816
  O     -122.547    -294.478     422.297
  P     -122.579    -293.286     421.219
  C     -120.127    -292.695     421.843
  O     -121.047    -293.040     420.812
  C     -118.697    -292.742     421.324
  O     -118.394    -294.069     420.848
  C     -118.416    -291.816     420.149
  O     -118.183    -290.479     420.571
  C     -117.150    -292.437     419.579
  O     -116.005    -291.991     420.334
  C     -117.391    -293.942     419.808
  N     -116.586    -294.783     414.876
  C     -115.876    -294.007     415.771
  N     -114.780    -293.386     415.284
  N     -116.214    -293.848     417.025
  C     -117.307    -294.561     417.381
  C     -118.095    -295.369     416.588
  C     -117.740    -295.495     415.193
  O     -118.372    -296.119     414.337
  N     -119.107    -295.941     417.313
  C     -118.917    -295.511     418.545
  N     -117.853    -294.648     418.631
  O     -122.936    -292.000     422.106
  O     -123.539    -293.474     420.099
  H     -115.827    -291.069     420.060
  H     -123.363    -291.322     421.548
  H     -116.274    -294.887     413.928
  H     -119.518    -295.796     419.397
  H     -116.481    -294.435     420.178
  H     -116.973    -292.164     418.533
  H     -114.399    -293.571     414.369
  H     -119.218    -291.867     419.407
  H     -114.223    -292.838     415.936
  H     -118.020    -292.519     422.162
  H     -120.233    -293.406     422.667
  H     -120.372    -291.692     422.212
  P     -118.121    -289.359     419.418
  C     -119.321    -287.470     420.745
  O     -118.108    -287.961     420.196
  O     -119.578    -289.423     418.768
  O     -117.041    -289.572     418.413
  H     -119.547    -289.118     417.840
  H     -119.931    -288.287     421.141
  H     -119.877    -286.931     419.980
  H     -119.084    -286.789     421.564
  H     -123.624    -295.713     423.517
  H     -124.405    -295.281     422.015
  H     -124.285    -294.110     423.306

 3  4  5  6  7  8  9  10  11  12  23  26  30  31  33  0
 6-311+G(2d,p)
 ****
 35  36  37  38 0
 6-311+G(2d,p)
 ****
 1  2  13  14  15  16  17  18  19  20  21  22  24  25  27  28  29 0
 3-21G
 ****
 32  34  39  40  41  42  43  44  45  46  47  48  49 0
 3-21G
 ****


