%nproc=1
%NoSave
%Mem=1900MB
#P OB98/GEN NMR

erre ene a

0 1
  C       32.040      62.365    -297.169
  O       32.915      62.992    -296.255
  H       32.569      61.539    -297.652
  H       31.730      63.077    -297.939
  H       31.162      61.968    -296.652
  P       32.303      64.140    -295.314
  C       32.076      66.722    -295.451
  O       32.553      65.535    -296.069
  C       32.965      67.912    -295.828
  O       34.169      67.872    -295.013
  C       33.392      67.919    -297.299
  O       33.395      69.271    -297.768
  C       34.819      67.396    -297.262
  O       35.592      67.832    -298.380
  C       35.303      67.910    -295.902
  N       36.418      67.115    -295.391
  C       37.695      67.456    -295.848
  O       37.841      68.386    -296.648
  N       38.769      66.706    -295.437
  C       38.576      65.654    -294.709
  N       39.676      64.932    -294.357
  C       37.237      65.213    -294.256
  C       36.217      65.989    -294.626
  O       33.327      64.198    -294.085
  O       30.893      63.919    -294.873
  H       35.705      68.807    -298.315
  H       32.873      64.445    -293.257
  H       37.124      64.311    -293.670
  H       35.197      65.741    -294.352
  H       35.629      68.959    -295.980
  H       34.805      66.299    -297.271
  H       32.746      67.313    -297.939
  H       32.437      68.836    -295.568
  H       40.573      65.257    -294.699
  H       32.099      66.593    -294.364
  H       39.640      64.073    -293.829
  H       31.042      66.906    -295.763
  P       31.963      69.928    -298.074
  C       30.012      69.542    -299.747
  O       31.315      69.157    -299.323
  O       32.338      71.367    -298.671
  O       31.083      70.043    -296.871
  H       32.120      72.065    -298.023
  H       29.717      68.943    -300.583
  H       30.020      70.573    -300.032
  H       29.319      69.399    -298.944

 6  7  8  9  10  11  12  13  14  15  16  26  30  31  32  33  35 0
 6-311+G(2d,p)
 ****
 37  38 0
 6-311+G(2d,p)
 ****
 1  2  3  4  5  17  18  19  20  21  22  23  24  25 0
 3-21G
 ****
 27  28  29  34  36  39  40  41  42  43  44  45  46 0
 3-21G
 ****


