%nproc=1
%NoSave
%Mem=1900MB
#P OB98/GEN NMR

erre ene a

0 1
  C      196.778    -158.713     -46.875
  O      195.514    -158.828     -46.202
  P      194.587    -160.111     -46.489
  C      193.504    -160.111     -44.114
  O      193.306    -160.105     -45.519
  C      192.365    -159.368     -43.388
  O      192.452    -157.942     -43.656
  C      190.954    -159.815     -43.793
  O      190.115    -159.681     -42.635
  C      190.566    -158.783     -44.839
  O      189.165    -158.696     -45.051
  C      191.188    -157.526     -44.215
  N      191.367    -156.415     -45.152
  C      190.233    -155.750     -45.602
  O      189.079    -156.067     -45.317
  N      190.457    -154.690     -46.447
  C      191.672    -154.270     -46.906
  O      191.803    -153.332     -47.683
  C      192.835    -155.026     -46.420
  C      192.631    -156.047     -45.579
  O      195.469    -161.303     -45.875
  O      194.287    -160.379     -47.926
  H      189.023    -158.048     -45.765
  H      195.493    -162.049     -46.502
  H      189.644    -154.187     -46.773
  H      193.816    -154.720     -46.756
  H      193.476    -156.614     -45.198
  H      190.569    -157.190     -43.375
  H      191.034    -159.041     -45.793
  H      190.919    -160.844     -44.169
  H      192.515    -159.497     -42.309
  H      194.452    -159.624     -43.878
  H      193.551    -161.151     -43.768
  P      189.675    -161.014     -41.850
  C      189.621    -159.989     -39.435
  O      188.910    -160.545     -40.527
  O      191.103    -161.504     -41.294
  O      188.988    -162.034     -42.698
  H      191.624    -160.780     -40.910
  H      190.409    -159.308     -39.781
  H      190.076    -160.795     -38.849
  H      188.924    -159.440     -38.805
  H      197.262    -157.808     -46.572
  H      196.619    -158.695     -47.933
  H      197.395    -159.550     -46.621

 3  4  5  6  7  8  9  10  11  12  13  23  28  29  30  31  32 0
 6-311+G(2d,p)
 ****
 33  34 0
 6-311+G(2d,p)
 ****
 1  2  14  15  16  17  18  19  20  21  22  24  25  26 0
 3-21G
 ****
 27  35  36  37  38  39  40  41  42  43  44  45 0
 3-21G
 ****


