%nproc=1
%NoSave
%Mem=1900MB
#P OB98/GEN NMR

erre ene a

0 1
  C     -317.803     191.756    -541.124
  O     -316.470     192.229    -541.163
  H     -318.345     192.292    -540.340
  H     -317.824     190.688    -540.893
  H     -318.301     191.939    -542.080
  P     -315.470     191.589    -542.236
  C     -316.827     192.920    -543.983
  O     -316.223     191.676    -543.646
  C     -316.281     193.420    -545.316
  O     -314.884     193.752    -545.197
  C     -316.389     192.405    -546.455
  O     -317.700     192.406    -546.996
  C     -315.341     192.950    -547.410
  O     -315.866     194.101    -548.103
  C     -314.226     193.375    -546.437
  N     -310.041     191.020    -548.063
  C     -310.801     192.003    -548.671
  N     -310.408     192.379    -549.908
  N     -311.857     192.551    -548.124
  C     -312.165     192.022    -546.916
  C     -311.500     191.038    -546.224
  C     -310.303     190.482    -546.809
  O     -309.595     189.621    -546.298
  N     -312.155     190.721    -545.057
  C     -313.186     191.537    -545.031
  N     -313.251     192.341    -546.145
  O     -314.939     190.223    -541.916
  O     -314.300     192.671    -542.372
  H     -315.174     194.394    -548.723
  H     -313.567     192.478    -541.763
  H     -309.249     190.629    -548.541
  H     -313.920     191.591    -544.230
  H     -313.674     194.250    -546.795
  H     -315.034     192.229    -548.166
  H     -309.796     191.804    -550.469
  H     -316.079     191.403    -546.135
  H     -310.978     193.062    -550.388
  H     -316.809     194.349    -545.569
  H     -316.593     193.628    -543.183
  H     -317.915     192.808    -544.050
  P     -318.269     191.130    -547.791
  C     -317.843     189.951    -545.527
  O     -317.766     189.864    -546.943
  O     -317.924     191.086    -549.238
  O     -319.835     191.140    -547.493
  H     -320.357     191.676    -548.141
  H     -317.477     189.044    -545.094
  H     -318.861     190.102    -545.234
  H     -317.249     190.773    -545.187

 6  7  8  9  10  11  12  13  14  15  26  29  33  34 0
 6-311+G(2d,p)
 ****
 36  38  39  40  41 0
 6-311+G(2d,p)
 ****
 1  2  3  4  5  16  17  18  19  20  21  22  23  24  25 0
 3-21G
 ****
 27  28  30  31  32  35  37  42  43  44  45  46  47 0
 3-21G
 ****
 48  49 0
 3-21G
 ****


