%nproc=1
%NoSave
%Mem=1900MB
#P OB98/GEN NMR

erre ene a

0 1
  C      112.359    -158.691     171.995
  O      113.206    -158.711     170.855
  P      114.287    -157.535     170.710
  C      116.447    -157.005     172.032
  O      115.117    -157.505     172.085
  C      116.723    -156.067     173.201
  O      116.032    -154.809     172.967
  C      116.255    -156.603     174.563
  O      117.268    -156.338     175.546
  C      115.055    -155.733     174.895
  O      114.827    -155.648     176.297
  C      115.474    -154.419     174.237
  N      112.287    -151.314     176.624
  C      113.417    -151.950     177.094
  N      113.705    -151.775     178.405
  N      114.197    -152.691     176.354
  C      113.804    -152.752     175.057
  C      112.712    -152.162     174.471
  C      111.826    -151.392     175.317
  O      110.759    -150.878     174.979
  N      112.656    -152.438     173.128
  C      113.710    -153.198     172.904
  N      114.411    -153.458     174.054
  O      113.387    -156.213     170.779
  O      115.101    -157.568     169.462
  H      114.873    -156.558     176.651
  H      113.540    -155.667     169.983
  H      111.713    -150.768     177.243
  H      113.983    -153.608     171.941
  H      116.266    -153.933     174.823
  H      114.163    -156.155     174.419
  H      113.169    -151.188     179.023
  H      116.008    -157.669     174.567
  H      114.543    -152.215     178.764
  H      117.795    -155.841     173.221
  H      116.588    -156.461     171.093
  H      117.142    -157.851     172.057
  P      117.389    -157.411     176.736
  C      117.560    -160.010     176.706
  O      117.094    -158.836     176.069
  O      116.090    -157.128     177.624
  O      118.653    -157.302     177.520
  H      116.235    -157.423     178.545
  H      117.953    -159.808     177.707
  H      118.353    -160.452     176.099
  H      116.734    -160.723     176.785
  H      111.694    -159.528     171.960
  H      111.791    -157.784     172.001
  H      112.954    -158.745     172.883

 3  4  5  6  7  8  9  10  11  12  23  26  30  31  33  0
 6-311+G(2d,p)
 ****
 35  36  37  38 0
 6-311+G(2d,p)
 ****
 1  2  13  14  15  16  17  18  19  20  21  22  24  25  27  28  29 0
 3-21G
 ****
 32  34  39  40  41  42  43  44  45  46  47  48  49 0
 3-21G
 ****


