%nproc=1
%NoSave
%Mem=1900MB
#P OB98/GEN NMR

erre ene a

0 1
  C      700.089    -391.404    -398.958
  O      699.140    -390.506    -399.509
  P      698.012    -389.933    -398.522
  C      697.755    -387.851    -400.064
  O      697.111    -388.945    -399.410
  C      697.240    -387.714    -401.497
  O      697.728    -388.799    -402.298
  C      695.722    -387.761    -401.616
  O      695.154    -386.530    -401.230
  C      695.550    -388.087    -403.092
  O      695.563    -386.893    -403.891
  C      696.788    -388.966    -403.393
  N      696.448    -390.367    -403.590
  C      695.950    -390.692    -404.858
  O      695.799    -389.820    -405.710
  N      695.595    -392.000    -405.101
  C      695.713    -392.890    -404.166
  N      695.352    -394.167    -404.466
  C      696.224    -392.583    -402.816
  C      696.565    -391.307    -402.592
  O      698.828    -388.940    -397.571
  O      697.265    -390.973    -397.748
  H      695.586    -387.197    -404.827
  H      698.391    -388.847    -396.704
  H      696.309    -393.352    -402.071
  H      696.941    -390.990    -401.634
  H      697.300    -388.608    -404.291
  H      694.598    -388.590    -403.290
  H      695.317    -388.572    -401.002
  H      697.625    -386.773    -401.917
  H      695.005    -394.349    -405.400
  H      698.832    -388.031    -400.092
  H      695.438    -394.935    -403.817
  H      697.565    -386.935    -399.493
  P      694.224    -386.507    -399.930
  C      694.925    -384.052    -399.660
  O      693.843    -384.965    -399.718
  O      695.289    -386.754    -398.749
  O      693.100    -387.488    -399.884
  H      694.825    -386.866    -397.903
  H      694.525    -383.034    -399.672
  H      695.585    -384.181    -400.527
  H      695.493    -384.200    -398.735
  H      700.778    -391.706    -399.719
  H      699.584    -392.265    -398.572
  H      700.622    -390.919    -398.167

 3  4  5  6  7  8  9  10  11  12  13  21  23  27  28  29  30  32 0
 6-311+G(2d,p)
 ****
 34  35 0
 6-311+G(2d,p)
 ****
 1  2  14  15  16  17  18  19  20  22  24  25  26 0
 3-21G
 ****
 31  33  36  37  38  39  40  41  42  43  44  45  46 0
 3-21G
 ****


