%nproc=1
%NoSave
%Mem=1900MB
#P OB98/GEN NMR

erre ene a

0 1
  C     -431.734     906.693     125.005
  O     -430.492     907.152     125.489
  H     -432.063     907.348     124.194
  H     -432.479     906.724     125.810
  H     -431.661     905.673     124.617
  P     -429.577     906.153     126.336
  C     -430.066     904.610     128.352
  O     -430.301     905.876     127.743
  C     -431.098     904.303     129.440
  O     -432.434     904.499     128.907
  C     -431.026     902.857     129.921
  O     -430.093     902.639     130.979
  C     -432.451     902.607     130.402
  O     -432.627     902.999     131.773
  C     -433.297     903.504     129.480
  N     -437.723     902.142     127.305
  C     -437.513     902.800     128.502
  N     -438.617     903.095     129.219
  N     -436.321     903.111     128.953
  C     -435.308     902.666     128.172
  C     -435.399     901.992     126.975
  C     -436.716     901.704     126.450
  O     -436.959     901.146     125.386
  N     -434.147     901.659     126.489
  C     -433.326     902.064     127.435
  N     -433.973     902.750     128.433
  O     -428.324     907.059     126.762
  O     -429.109     904.929     125.602
  H     -432.070     902.417     132.330
  H     -427.526     906.508     126.825
  H     -438.656     901.950     127.000
  H     -432.245     901.932     127.419
  H     -434.073     904.038     130.036
  H     -432.709     901.545     130.341
  H     -439.550     902.794     128.964
  H     -430.817     902.172     129.092
  H     -438.499     903.397     130.186
  H     -430.980     905.019     130.263
  H     -429.067     904.655     128.785
  H     -430.057     903.825     127.594
  P     -429.440     901.202     131.205
  C     -430.368     898.812     131.785
  O     -430.566     900.210     131.732
  O     -428.507     901.424     132.497
  O     -428.666     900.658     130.044
  H     -427.579     901.568     132.222
  H     -431.249     898.341     132.169
  H     -429.539     898.593     132.425
  H     -430.166     898.443     130.801

 6  7  8  9  10  11  12  13  14  15  26  29  33  34 0
 6-311+G(2d,p)
 ****
 36  38  39  40  41 0
 6-311+G(2d,p)
 ****
 1  2  3  4  5  16  17  18  19  20  21  22  23  24  25 0
 3-21G
 ****
 27  28  30  31  32  35  37  42  43  44  45  46  47 0
 3-21G
 ****
 48  49 0
 3-21G
 ****


