%nproc=1
%NoSave
%Mem=1900MB
#P OB98/GEN NMR

erre ene a

0 1
  C     -459.860    -832.177     477.046
  O     -459.527    -833.040     475.977
  P     -458.036    -833.612     475.831
  C     -458.833    -835.656     477.173
  O     -457.829    -834.655     477.033
  C     -458.298    -837.002     476.678
  O     -457.983    -836.945     475.261
  C     -456.993    -837.434     477.331
  O     -457.028    -837.735     478.712
  C     -456.539    -838.534     476.392
  O     -457.206    -839.764     476.666
  C     -456.987    -837.973     475.017
  N     -455.863    -837.464     474.238
  C     -455.370    -838.318     473.261
  O     -455.825    -839.435     473.036
  N     -454.294    -837.852     472.549
  C     -453.651    -836.660     472.752
  O     -452.668    -836.328     472.108
  C     -454.216    -835.808     473.810
  C     -455.279    -836.237     474.502
  O     -456.968    -832.577     475.712
  O     -458.142    -834.580     474.557
  H     -458.167    -839.586     476.670
  H     -458.780    -835.311     474.655
  H     -453.904    -838.459     471.845
  H     -453.735    -834.855     473.985
  H     -455.709    -835.631     475.282
  H     -457.489    -838.758     474.427
  H     -455.465    -838.726     476.475
  H     -456.270    -836.610     477.233
  H     -459.081    -837.750     476.806
  H     -459.708    -835.372     476.574
  H     -459.140    -835.711     478.220
  P     -455.719    -837.782     479.638
  C     -455.848    -835.313     480.418
  O     -455.120    -836.298     479.728
  O     -454.758    -838.904     479.398
  O     -456.369    -837.963     481.100
  H     -455.759    -838.473     481.651
  H     -455.318    -834.360     480.344
  H     -455.945    -835.577     481.476
  H     -456.843    -835.195     479.970
  H     -460.892    -831.903     476.975
  H     -459.253    -831.297     476.996
  H     -459.687    -832.678     477.976

 3  4  5  6  7  8  9  10  11  12  13  23  28  29  30  31  32 0
 6-311+G(2d,p)
 ****
 33  34 0
 6-311+G(2d,p)
 ****
 1  2  14  15  16  17  18  19  20  21  22  24  25  26  27 0
 3-21G
 ****
 35  36  37  38  39  40  41  42  43  44  45 0
 3-21G
 ****


