%nproc=1
%NoSave
%Mem=1900MB
#P OB98/GEN NMR

erre ene a

0 1
  C      401.623    -135.910    -389.491
  O      402.443    -134.886    -390.087
  P      401.701    -133.725    -390.914
  C      400.986    -135.339    -392.816
  O      401.741    -134.195    -392.457
  C      400.596    -135.281    -394.299
  O      399.804    -134.113    -394.545
  C      401.809    -135.155    -395.250
  O      402.422    -136.419    -395.499
  C      401.121    -134.616    -396.521
  O      400.540    -135.721    -397.235
  C      400.018    -133.714    -395.932
  N      398.239    -128.970    -396.015
  C      397.549    -130.156    -395.991
  N      396.200    -130.098    -395.974
  N      398.147    -131.330    -396.005
  C      399.493    -131.250    -395.994
  C      400.278    -130.126    -396.039
  C      399.614    -128.830    -396.070
  O      400.167    -127.756    -396.168
  N      401.617    -130.449    -395.984
  C      401.646    -131.774    -395.905
  N      400.363    -132.304    -395.950
  O      402.748    -132.531    -390.841
  O      400.357    -133.325    -390.395
  H      401.283    -136.338    -397.446
  H      402.278    -131.660    -390.961
  H      397.733    -128.094    -395.994
  H      402.535    -132.369    -395.824
  H      399.071    -133.855    -396.467
  H      401.814    -134.117    -397.183
  H      395.703    -129.229    -395.832
  H      402.522    -134.394    -394.900
  H      395.685    -130.962    -395.908
  H      400.020    -136.172    -394.549
  H      400.057    -135.369    -392.217
  H      401.554    -136.238    -392.620
  P      403.914    -136.588    -394.884
  C      405.154    -134.798    -396.311
  O      404.885    -136.171    -396.094
  O      404.067    -138.185    -394.776
  O      404.140    -135.897    -393.578
  H      404.713    -138.406    -394.106
  H      405.236    -134.246    -395.367
  H      404.385    -134.355    -396.939
  H      406.123    -134.714    -396.837
  H      402.246    -136.611    -388.976
  H      401.073    -136.417    -390.256
  H      400.941    -135.463    -388.798

 3  4  5  6  7  8  9  10  11  12  23  26  30  31  33  0
 6-311+G(2d,p)
 ****
 35  36  37  38 0
 6-311+G(2d,p)
 ****
 1  2  13  14  15  16  17  18  19  20  21  22  24  25  27  28  29 0
 3-21G
 ****
 32  34  39  40  41  42  43  44  45  46  47  48  49 0
 3-21G
 ****


