%nproc=1
%NoSave
%Mem=1900MB
#P OB98/GEN NMR

erre ene a

0 1
  C        4.082     -27.568    -271.706
  O        4.589     -28.878    -271.871
  P        5.633     -29.203    -273.054
  C        5.435     -31.774    -272.886
  O        6.281     -30.632    -272.700
  C        6.248     -33.054    -272.720
  O        7.358     -33.091    -273.649
  C        6.893     -33.213    -271.349
  O        6.041     -33.375    -270.242
  C        7.898     -34.314    -271.612
  O        7.274     -35.599    -271.588
  C        8.351     -33.984    -273.062
  N        9.689     -33.379    -273.096
  C       10.753     -34.250    -272.933
  O       10.629     -35.469    -272.776
  N       12.003     -33.678    -272.931
  C       12.277     -32.345    -273.019
  O       13.427     -31.902    -272.962
  C       11.103     -31.469    -273.175
  C        9.888     -32.011    -273.207
  O        6.626     -28.116    -273.345
  O        4.691     -29.553    -274.300
  H        7.804     -36.189    -272.166
  H        4.080     -30.312    -274.160
  H       12.789     -34.303    -272.803
  H       11.293     -30.392    -273.266
  H        8.993     -31.376    -273.322
  H        8.371     -34.882    -273.691
  H        8.705     -34.332    -270.885
  H        7.467     -32.297    -271.142
  H        5.601     -33.900    -272.957
  H        5.017     -31.735    -273.885
  H        4.597     -31.735    -272.177
  P        6.355     -32.732    -268.788
  C        4.639     -34.396    -267.770
  O        5.125     -33.058    -267.833
  O        6.888     -31.326    -268.775
  O        7.476     -33.731    -268.235
  H        8.079     -33.228    -267.655
  H        3.784     -34.431    -267.100
  H        5.410     -35.057    -267.362
  H        4.316     -34.733    -268.752
  H        3.408     -27.548    -270.875
  H        3.562     -27.272    -272.593
  H        4.892     -26.892    -271.525

 3  4  5  6  7  8  9  10  11  12  13  23  28  29  30  31  32 0
 6-311+G(2d,p)
 ****
 33  34 0
 6-311+G(2d,p)
 ****
 1  2  14  15  16  17  18  19  20  21  22  24  25  26  27 0
 3-21G
 ****
 35  36  37  38  39  40  41  42  43  44  45 0
 3-21G
 ****


