%nproc=1
%NoSave
%Mem=1900MB
#P OB98/GEN NMR

erre ene a

0 1
  C     -528.474     -76.562     250.538
  O     -528.753     -77.930     250.851
  P     -527.851     -79.024     250.097
  C     -529.343     -79.966     248.198
  O     -528.303     -79.070     248.555
  C     -528.981     -80.796     246.963
  O     -528.005     -81.827     247.295
  C     -530.173     -81.505     246.320
  O     -529.942     -81.529     244.905
  C     -530.063     -82.921     246.860
  O     -530.797     -83.846     246.072
  C     -528.542     -83.082     246.826
  N     -528.047     -88.110     247.054
  C     -528.688     -87.316     246.120
  N     -529.226     -87.956     245.069
  N     -528.783     -86.012     246.211
  C     -528.149     -85.508     247.302
  C     -527.472     -86.179     248.290
  C     -527.401     -87.626     248.199
  O     -526.848     -88.372     248.992
  N     -526.951     -85.317     249.226
  C     -527.373     -84.126     248.824
  N     -528.054     -84.184     247.636
  O     -528.379     -80.411     250.697
  O     -526.385     -78.846     250.323
  H     -530.653     -84.739     246.456
  H     -527.772     -80.737     251.380
  H     -528.019     -89.107     246.943
  H     -527.185     -83.199     249.334
  H     -528.158     -83.262     245.805
  H     -530.435     -82.966     247.889
  H     -529.149     -88.953     244.906
  H     -531.150     -81.048     246.540
  H     -529.667     -87.397     244.336
  H     -528.513     -80.126     246.233
  H     -530.268     -79.409     247.999
  H     -529.566     -80.612     249.061
  P     -530.430     -80.261     244.044
  C     -532.665     -81.352     243.299
  O     -532.026     -80.305     244.003
  O     -530.011     -80.667     242.552
  O     -529.810     -78.965     244.445
  H     -529.683     -79.882     242.080
  H     -533.651     -81.519     243.735
  H     -532.081     -82.282     243.357
  H     -532.771     -81.068     242.249
  H     -529.131     -75.927     251.095
  H     -528.622     -76.398     249.491
  H     -527.460     -76.337     250.794

 3  4  5  6  7  8  9  10  11  12  23  26  30  31 0
 6-311+G(2d,p)
 ****
 33  35  36  37  38 0
 6-311+G(2d,p)
 ****
 1  2  13  14  15  16  17  18  19  20  21  22  24  25 0
 3-21G
 ****
 27  28  29  32  34  39  40  41  42  43  44  45  46  47  48  49 0
 3-21G
 ****


