%nproc=1
%NoSave
%Mem=1900MB
#P OB98/GEN NMR

erre ene a

0 1
  C     -187.830      89.023      98.565
  O     -188.223      90.385      98.728
  P     -188.726      91.194      97.438
  C     -186.575      92.620      97.414
  O     -187.444      91.775      96.666
  C     -185.641      93.402      96.474
  O     -186.449      94.194      95.564
  C     -184.708      94.396      97.173
  O     -183.435      93.931      97.615
  C     -184.440      95.393      96.048
  O     -183.387      94.898      95.197
  C     -185.753      95.424      95.272
  N     -186.135     100.525      95.119
  C     -185.176      99.676      94.685
  N     -185.151      98.332      94.766
  C     -186.265      97.866      95.353
  C     -187.328      98.608      95.841
  C     -187.236     100.005      95.709
  N     -188.207     100.868      96.160
  N     -188.291      97.782      96.384
  C     -187.805      96.565      96.242
  N     -186.592      96.561      95.612
  O     -189.832      92.167      97.669
  O     -189.204      90.016      96.458
  H     -183.436      95.412      94.370
  H     -189.999      90.310      95.974
  H     -184.314     100.141      94.215
  H     -188.297      95.663      96.578
  H     -185.596      95.459      94.187
  H     -184.106      96.366      96.422
  H     -185.222      94.899      97.999
  H     -185.055      92.692      95.878
  H     -185.981      92.016      98.104
  H     -188.042     101.857      96.067
  H     -189.007     100.502      96.655
  H     -187.199      93.274      98.024
  P     -183.168      93.565      99.151
  C     -182.143      95.813     100.009
  O     -183.258      94.952      99.947
  O     -181.927      92.782      99.407
  O     -184.520      92.820      99.570
  H     -185.302      93.395      99.600
  H     -182.467      96.780     100.401
  H     -181.710      95.961      99.019
  H     -181.393      95.394     100.685
  H     -187.522      88.625      99.509
  H     -187.016      88.967      97.872
  H     -188.657      88.456      98.191

 3  4  5  6  7  8  9  10  11  12  22  25  29  30  31  32 0
 6-311+G(2d,p)
 ****
 33  36  37 0
 6-311+G(2d,p)
 ****
 1  2  13  14  15  16  17  18  19  20  21  23  24  26 0
 3-21G
 ****
 27  28  34  35  38  39  40  41  42  43  44  45  46  47  48 0
 3-21G
 ****


