%nproc=1
%NoSave
%Mem=1900MB
#P OB98/GEN NMR

erre ene a

0 1
  C      228.609    -495.686     676.669
  O      229.734    -495.403     677.480
  H      228.578    -496.767     676.473
  H      228.693    -495.158     675.712
  H      227.687    -495.394     677.179
  P      229.871    -493.905     678.033
  C      231.362    -493.014     676.065
  O      231.246    -493.309     677.450
  C      232.555    -492.089     675.827
  O      232.406    -490.852     676.562
  C      233.875    -492.654     676.323
  O      234.351    -493.718     675.523
  C      234.746    -491.401     676.260
  O      235.177    -491.135     674.921
  C      233.746    -490.313     676.744
  N      233.984    -489.911     678.124
  C      233.542    -488.617     678.465
  O      232.984    -487.917     677.631
  N      233.773    -488.173     679.738
  C      234.366    -488.938     680.597
  N      234.574    -488.432     681.853
  C      234.820    -490.308     680.291
  C      234.600    -490.723     679.044
  O      230.211    -494.133     679.582
  O      228.685    -493.024     677.785
  H      235.548    -491.974     674.583
  H      230.967    -494.721     679.726
  H      235.297    -490.922     681.049
  H      234.912    -491.709     678.735
  H      233.820    -489.424     676.105
  H      235.649    -491.498     676.870
  H      233.793    -492.947     677.370
  H      232.589    -491.849     674.758
  H      234.260    -487.479     682.020
  H      230.439    -492.571     675.677
  H      235.048    -488.916     682.591
  H      231.515    -493.967     675.536
  P      234.005    -495.236     675.903
  C      236.339    -495.536     676.960
  O      235.403    -496.013     675.980
  O      232.974    -495.889     675.026
  O      233.578    -495.145     677.447
  H      234.269    -494.799     678.045
  H      237.230    -496.127     676.920
  H      235.904    -495.612     677.935
  H      236.580    -494.514     676.755

 6  7  8  9  10  11  12  13  14  15  16  26  30  31  32  33  35 0
 6-311+G(2d,p)
 ****
 37  38 0
 6-311+G(2d,p)
 ****
 1  2  3  4  5  17  18  19  20  21  22  23  24  25 0
 3-21G
 ****
 27  28  29  34  36  39  40  41  42  43  44  45  46 0
 3-21G
 ****


