%nproc=1
%NoSave
%Mem=1900MB
#P OB98/GEN NMR

erre ene a

0 1
  C      734.238     -50.734    -444.068
  O      732.858     -50.563    -443.679
  P      731.699     -51.152    -444.625
  C      731.254     -53.479    -443.508
  O      731.791     -52.753    -444.606
  C      731.144     -54.964    -443.865
  O      732.445     -55.580    -443.916
  C      730.351     -55.794    -442.862
  O      728.946     -55.598    -442.995
  C      730.801     -57.203    -443.213
  O      730.056     -57.722    -444.330
  C      732.276     -56.977    -443.607
  N      733.206     -57.410    -442.563
  C      734.093     -58.425    -442.902
  O      734.080     -58.995    -443.999
  N      734.975     -58.799    -441.924
  C      735.017     -58.313    -440.647
  O      735.821     -58.705    -439.817
  C      734.002     -57.302    -440.322
  C      733.153     -56.910    -441.278
  O      732.250     -50.803    -446.087
  O      730.338     -50.573    -444.421
  H      730.118     -57.055    -445.035
  H      731.503     -50.695    -446.702
  H      735.649     -59.520    -442.159
  H      733.985     -56.904    -439.311
  H      732.405     -56.161    -441.048
  H      732.514     -57.525    -444.528
  H      730.667     -57.905    -442.390
  H      730.678     -55.555    -441.843
  H      730.689     -55.044    -444.868
  H      730.262     -53.087    -443.268
  H      731.910     -53.336    -442.634
  P      728.153     -55.165    -441.669
  C      727.931     -52.576    -441.925
  O      728.626     -53.669    -441.370
  O      728.888     -56.068    -440.571
  O      726.681     -55.394    -441.773
  H      729.837     -56.199    -440.770
  H      726.857     -52.786    -442.034
  H      728.358     -52.344    -442.907
  H      728.051     -51.701    -441.272
  H      734.874     -50.286    -443.333
  H      734.402     -50.264    -445.015
  H      734.460     -51.778    -444.144

 3  4  5  6  7  8  9  10  11  12  13  23  28  29  30  31  32 0
 6-311+G(2d,p)
 ****
 33  34 0
 6-311+G(2d,p)
 ****
 1  2  14  15  16  17  18  19  20  21  22  24  25  26 0
 3-21G
 ****
 27  35  36  37  38  39  40  41  42  43  44  45 0
 3-21G
 ****


