%nproc=1
%NoSave
%Mem=1900MB
#P OB98/GEN NMR

erre ene a

0 1
  C     -359.127     263.344    -153.542
  O     -358.608     264.561    -153.035
  P     -357.407     265.249    -153.849
  C     -359.363     266.070    -155.354
  O     -358.012     265.622    -155.287
  C     -359.440     267.407    -156.089
  O     -359.332     268.489    -155.150
  C     -358.332     267.623    -157.102
  O     -358.585     266.899    -158.283
  C     -358.381     269.138    -157.278
  O     -359.341     269.509    -158.279
  C     -358.820     269.629    -155.878
  N     -357.746     270.286    -155.155
  C     -358.145     271.133    -154.108
  O     -359.341     271.297    -153.869
  N     -357.176     271.799    -153.396
  C     -355.927     271.635    -153.700
  N     -355.013     272.316    -152.961
  C     -355.468     270.772    -154.805
  C     -356.423     270.136    -155.487
  O     -356.432     264.022    -154.160
  O     -356.716     266.357    -153.125
  H     -359.110     268.982    -159.074
  H     -355.513     264.326    -154.271
  H     -354.413     270.671    -155.019
  H     -356.174     269.480    -156.316
  H     -359.652     270.340    -155.969
  H     -357.417     269.539    -157.602
  H     -357.361     267.335    -156.672
  H     -360.428     267.476    -156.574
  H     -355.357     272.907    -152.213
  H     -359.753     266.201    -154.338
  H     -354.016     272.242    -153.104
  H     -359.964     265.311    -155.869
  P     -357.351     266.611    -159.264
  C     -356.741     264.510    -157.930
  O     -356.307     265.778    -158.378
  O     -356.644     268.049    -159.346
  O     -357.665     266.059    -160.612
  H     -355.926     268.026    -160.003
  H     -355.891     263.987    -157.479
  H     -357.112     263.913    -158.768
  H     -357.523     264.621    -157.174
  H     -359.916     263.000    -152.906
  H     -358.349     262.610    -153.574
  H     -359.508     263.503    -154.529

 3  4  5  6  7  8  9  10  11  12  13  21  23  27  28  29  30  32 0
 6-311+G(2d,p)
 ****
 34  35 0
 6-311+G(2d,p)
 ****
 1  2  14  15  16  17  18  19  20  22  24  25  26 0
 3-21G
 ****
 31  33  36  37  38  39  40  41  42  43  44  45  46 0
 3-21G
 ****


