%nproc=1
%NoSave
%Mem=1900MB
#P OB98/GEN NMR

erre ene a

0 1
  C      -54.255     126.047     678.411
  O      -53.432     125.283     677.516
  P      -52.112     124.525     678.021
  C      -49.906     125.046     679.233
  O      -50.987     125.588     678.490
  C      -49.207     126.091     680.120
  O      -48.446     127.035     679.318
  C      -50.146     126.919     681.009
  O      -49.408     127.239     682.189
  C      -50.356     128.171     680.165
  O      -50.843     129.279     680.908
  C      -48.956     128.357     679.593
  N      -47.961     133.001     677.656
  C      -47.680     132.447     678.858
  N      -47.940     131.202     679.281
  C      -48.522     130.464     678.311
  C      -48.863     130.888     677.033
  C      -48.565     132.225     676.715
  N      -48.887     132.816     675.508
  N      -49.471     129.872     676.328
  C      -49.512     128.857     677.168
  N      -48.944     129.165     678.384
  O      -51.595     123.489     677.068
  O      -52.558     123.829     679.392
  H      -50.148     129.551     681.532
  H      -52.233     122.903     679.405
  H      -47.189     133.105     679.576
  H      -49.951     127.890     676.963
  H      -48.286     128.835     680.321
  H      -51.094     127.953     679.375
  H      -51.083     126.411     681.254
  H      -48.475     125.549     680.740
  H      -49.171     124.625     678.533
  H      -48.719     133.800     675.410
  H      -49.449     132.296     674.851
  H      -50.273     124.223     679.856
  P      -49.886     126.749     683.637
  C      -51.250     127.760     685.561
  O      -50.839     127.906     684.219
  O      -48.784     126.334     684.564
  O      -50.901     125.542     683.350
  H      -51.003     125.002     684.154
  H      -52.036     126.992     685.625
  H      -51.645     128.711     685.919
  H      -50.404     127.467     686.195
  H      -55.078     126.465     677.870
  H      -53.675     126.835     678.843
  H      -54.625     125.410     679.187

 3  4  5  6  7  8  9  10  11  12  22  25  29  30  31  32 0
 6-311+G(2d,p)
 ****
 33  36  37 0
 6-311+G(2d,p)
 ****
 1  2  13  14  15  16  17  18  19  20  21  23  24  26 0
 3-21G
 ****
 27  28  34  35  38  39  40  41  42  43  44  45  46  47  48 0
 3-21G
 ****


