%nproc=1
%NoSave
%Mem=1900MB
#P OB98/GEN NMR

erre ene a

0 1
  C      140.394     237.633    -232.283
  O      139.662     236.903    -231.301
  P      138.385     237.601    -230.627
  C      136.656     235.882    -231.664
  O      137.180     236.553    -230.539
  C      135.721     234.755    -231.192
  O      136.495     233.624    -230.726
  C      134.802     235.171    -230.046
  O      133.615     235.785    -230.513
  C      134.569     233.851    -229.334
  O      133.602     233.065    -230.050
  C      135.974     233.203    -229.437
  N      136.967     233.538    -228.389
  C      136.671     233.291    -227.051
  O      135.614     232.811    -226.654
  N      137.656     233.618    -226.151
  C      138.937     233.985    -226.449
  O      139.796     234.200    -225.605
  C      139.240     234.079    -227.878
  C      138.265     233.872    -228.770
  O      137.898     238.650    -231.732
  O      138.663     238.256    -229.307
  H      132.866     233.651    -230.279
  H      137.993     239.563    -231.393
  H      137.435     233.513    -225.175
  H      140.259     234.323    -228.170
  H      138.478     233.941    -229.831
  H      135.891     232.111    -229.456
  H      134.160     234.007    -228.339
  H      135.334     235.835    -229.354
  H      135.118     234.421    -232.047
  H      137.458     235.469    -232.282
  H      136.106     236.591    -232.293
  P      132.673     236.581    -229.495
  C      132.876     238.744    -230.863
  O      131.994     237.751    -230.360
  O      133.307     237.013    -228.213
  O      131.443     235.576    -229.248
  H      131.586     235.053    -228.430
  H      132.316     239.380    -231.558
  H      133.707     238.283    -231.394
  H      133.250     239.358    -230.044
  H      141.210     237.037    -232.635
  H      140.772     238.535    -231.849
  H      139.749     237.874    -233.102

 3  4  5  6  7  8  9  10  11  12  13  23  28  29  30  31  32 0
 6-311+G(2d,p)
 ****
 33  34 0
 6-311+G(2d,p)
 ****
 1  2  14  15  16  17  18  19  20  21  22  24  25  26  27 0
 3-21G
 ****
 35  36  37  38  39  40  41  42  43  44  45 0
 3-21G
 ****


