%nproc=1
%NoSave
%Mem=1900MB
#P OB98/GEN NMR

erre ene a

0 1
  C      519.664     855.219     -53.596
  O      520.451     854.117     -53.187
  H      520.326     856.063     -53.811
  H      518.972     855.520     -52.805
  H      519.106     854.971     -54.503
  P      519.699     852.802     -52.668
  C      520.811     853.293     -50.380
  O      519.614     852.958     -51.069
  C      520.645     853.014     -48.888
  O      519.870     854.056     -48.266
  C      519.904     851.721     -48.590
  O      520.745     850.597     -48.805
  C      519.469     851.952     -47.163
  O      520.544     851.700     -46.242
  C      519.114     853.455     -47.196
  N      517.677     853.691     -47.369
  C      516.935     853.835     -46.194
  O      517.476     853.766     -45.092
  N      515.573     854.023     -46.299
  C      515.016     854.093     -47.469
  N      513.668     854.288     -47.504
  C      515.774     853.964     -48.737
  C      517.084     853.762     -48.603
  O      520.240     851.482     -53.128
  O      518.182     853.023     -53.134
  H      520.702     850.735     -46.277
  H      518.045     852.654     -54.029
  H      515.267     854.026     -49.685
  H      517.711     853.661     -49.486
  H      519.429     853.946     -46.264
  H      518.636     851.304     -46.886
  H      519.006     851.647     -49.219
  H      521.644     853.013     -48.426
  H      513.195     854.360     -46.611
  H      520.991     854.356     -50.544
  H      513.144     854.443     -48.350
  H      521.659     852.722     -50.780
  P      520.143     849.117     -48.846
  C      521.470     848.685     -46.675
  O      520.202     848.580     -47.330
  O      520.736     848.211     -49.869
  O      518.564     849.376     -49.062
  H      518.375     849.657     -49.986
  H      521.390     848.300     -45.680
  H      521.768     849.712     -46.638
  H      522.200     848.121     -47.218

 6  7  8  9  10  11  12  13  14  15  16  26  30  31  32  33  35 0
 6-311+G(2d,p)
 ****
 37  38 0
 6-311+G(2d,p)
 ****
 1  2  3  4  5  17  18  19  20  21  22  23  24  25 0
 3-21G
 ****
 27  28  29  34  36  39  40  41  42  43  44  45  46 0
 3-21G
 ****


