%nproc=1
%NoSave
%Mem=1900MB
#P OB98/GEN NMR

erre ene a

0 1
  C       96.541      67.826     135.907
  O       96.035      68.205     134.636
  P       97.034      68.546     133.429
  C       96.849      71.088     133.768
  O       97.712      69.958     133.782
  C       97.588      72.326     133.263
  O       98.817      72.473     134.012
  C       97.959      72.250     131.785
  O       97.848      73.557     131.214
  C       99.426      71.851     131.784
  O      100.085      72.298     130.590
  C       99.914      72.510     133.081
  N      104.855      72.843     134.453
  C      104.005      73.752     133.921
  N      102.713      73.589     133.555
  C      102.299      72.344     133.847
  C      103.045      71.311     134.393
  C      104.388      71.597     134.700
  N      105.247      70.672     135.255
  N      102.281      70.164     134.514
  C      101.093      70.509     134.070
  N      101.049      71.817     133.663
  O       96.427      68.472     132.069
  O       98.239      67.510     133.598
  H      100.078      73.277     130.609
  H       98.551      67.202     132.726
  H      104.420      74.742     133.761
  H      100.238      69.850     134.008
  H      100.192      73.558     132.922
  H       99.511      70.761     131.832
  H       97.335      71.542     131.226
  H       96.970      73.208     133.466
  H       96.501      71.270     134.791
  H      106.152      71.001     135.552
  H      104.854      69.804     135.597
  H       95.977      70.873     133.141
  P       97.467      73.611     129.649
  C       99.806      74.472     128.901
  O       98.861      73.427     128.884
  O       96.655      74.817     129.312
  O       96.700      72.214     129.468
  H       96.981      71.558     130.144
  H      100.670      74.176     128.296
  H      100.149      74.655     129.922
  H       99.376      75.386     128.481
  H       95.726      67.641     136.575
  H       97.150      68.614     136.298
  H       97.129      66.937     135.806

 3  4  5  6  7  8  9  10  11  12  22  25  29  30  31  32 0
 6-311+G(2d,p)
 ****
 33  36  37 0
 6-311+G(2d,p)
 ****
 1  2  13  14  15  16  17  18  19  20  21  23  24  26 0
 3-21G
 ****
 27  28  34  35  38  39  40  41  42  43  44  45  46  47  48 0
 3-21G
 ****


