%nproc=1
%NoSave
%Mem=1900MB
#P OB98/GEN NMR

erre ene a

0 1
  C     -380.926     426.271    -704.190
  O     -380.086     425.583    -703.281
  H     -380.560     426.094    -705.206
  H     -380.901     427.346    -703.990
  H     -381.951     425.898    -704.113
  P     -380.442     425.739    -701.721
  C     -382.513     424.192    -701.874
  O     -382.025     425.489    -701.600
  C     -383.784     423.914    -701.068
  O     -383.484     423.829    -699.658
  C     -384.864     424.978    -701.219
  O     -385.627     424.765    -702.395
  C     -385.671     424.768    -699.946
  O     -386.593     423.661    -700.079
  C     -384.575     424.448    -698.920
  N     -385.751     427.881    -695.410
  C     -386.461     426.790    -695.863
  N     -387.705     426.626    -695.344
  N     -386.017     425.953    -696.755
  C     -384.782     426.267    -697.211
  C     -383.967     427.306    -696.828
  C     -384.467     428.210    -695.813
  O     -383.856     429.156    -695.320
  N     -382.773     427.278    -697.500
  C     -382.885     426.245    -698.323
  N     -384.092     425.611    -698.193
  O     -380.298     427.317    -701.461
  O     -379.588     424.950    -700.788
  H     -387.122     423.589    -699.265
  H     -380.015     427.459    -700.538
  H     -386.143     428.484    -694.706
  H     -382.125     425.936    -699.021
  H     -384.913     423.725    -698.169
  H     -386.276     425.643    -699.701
  H     -388.212     427.394    -694.928
  H     -384.425     425.985    -701.211
  H     -388.244     425.840    -695.688
  H     -384.164     422.934    -701.371
  H     -381.750     423.450    -701.592
  H     -382.726     424.094    -702.943
  P     -386.357     426.037    -703.051
  C     -385.428     425.479    -705.422
  O     -385.508     426.422    -704.360
  O     -386.023     427.219    -702.028
  O     -387.832     425.875    -703.261
  H     -386.623     427.974    -702.176
  H     -384.832     425.883    -706.213
  H     -386.411     425.269    -705.788
  H     -384.981     424.575    -705.064

 6  7  8  9  10  11  12  13  14  15  26  29  33  34 0
 6-311+G(2d,p)
 ****
 36  38  39  40  41 0
 6-311+G(2d,p)
 ****
 1  2  3  4  5  16  17  18  19  20  21  22  23  24  25 0
 3-21G
 ****
 27  28  30  31  32  35  37  42  43  44  45  46  47 0
 3-21G
 ****
 48  49 0
 3-21G
 ****


