%nproc=1
%NoSave
%Mem=1900MB
#P OB98/GEN NMR

erre ene a

0 1
  C     -198.812    -269.483     -55.699
  O     -199.670    -269.467     -54.577
  H     -198.927    -268.538     -56.239
  H     -199.072    -270.303     -56.371
  H     -197.769    -269.576     -55.381
  P     -199.742    -270.770     -53.647
  C     -200.915    -273.065     -53.782
  O     -200.507    -271.900     -54.493
  C     -201.448    -274.119     -54.760
  O     -202.747    -273.674     -55.224
  C     -200.536    -274.302     -55.983
  O     -200.165    -275.661     -56.208
  C     -201.292    -273.583     -57.094
  O     -201.015    -274.053     -58.396
  C     -202.757    -273.723     -56.663
  N     -203.636    -272.691     -57.207
  C     -204.645    -273.105     -58.072
  O     -204.870    -274.269     -58.393
  N     -205.437    -272.103     -58.575
  C     -205.316    -270.772     -58.316
  O     -206.060    -269.923     -58.793
  C     -204.217    -270.395     -57.413
  C     -203.439    -271.357     -56.909
  O     -200.276    -270.553     -52.270
  O     -198.233    -271.306     -53.613
  H     -201.291    -274.991     -58.440
  H     -197.819    -271.060     -52.766
  H     -206.179    -272.393     -59.196
  H     -204.084    -269.346     -57.193
  H     -202.619    -271.115     -56.237
  H     -203.154    -274.692     -56.966
  H     -201.011    -272.523     -57.070
  H     -199.571    -273.802     -55.829
  H     -201.595    -275.060     -54.218
  H     -201.697    -272.774     -53.075
  H     -200.064    -273.474     -53.225
  P     -198.903    -276.378     -55.549
  C     -196.306    -276.322     -55.925
  O     -197.603    -275.977     -56.391
  O     -199.077    -277.825     -55.227
  O     -198.712    -275.590     -54.154
  H     -198.363    -276.240     -53.511
  H     -195.572    -275.970     -56.620
  H     -196.231    -277.385     -55.834
  H     -196.138    -275.870     -54.970

 6  7  8  9  10  11  12  13  14  15  16  26  31  32  33  34  35 0
 6-311+G(2d,p)
 ****
 36  37 0
 6-311+G(2d,p)
 ****
 1  2  3  4  5  17  18  19  20  21  22  23  24  25 0
 3-21G
 ****
 27  28  29  30  38  39  40  41  42  43  44  45 0
 3-21G
 ****


