%nproc=1
%NoSave
%Mem=1900MB
#P OB98/GEN NMR

erre ene a

0 1
  C      120.581     281.379    -829.955
  O      120.147     280.033    -829.924
  H      120.643     281.750    -828.928
  H      119.872     282.001    -830.507
  H      121.574     281.447    -830.413
  P      119.901     279.278    -831.314
  C      121.850     277.577    -831.242
  O      121.334     278.774    -831.819
  C      122.062     276.514    -832.318
  O      120.797     276.070    -832.844
  C      122.869     276.993    -833.520
  O      124.242     277.079    -833.198
  C      122.503     275.927    -834.540
  O      123.247     274.718    -834.313
  C      120.999     275.712    -834.229
  N      120.107     276.472    -835.101
  C      119.823     275.892    -836.343
  O      120.321     274.810    -836.656
  N      118.991     276.568    -837.201
  C      118.456     277.695    -836.842
  N      117.636     278.309    -837.731
  C      118.707     278.320    -835.531
  C      119.545     277.667    -834.723
  O      119.111     280.030    -832.343
  O      119.170     277.919    -830.889
  H      122.987     274.409    -833.423
  H      118.200     278.022    -830.942
  H      118.233     279.251    -835.266
  H      119.781     278.059    -833.738
  H      120.739     274.651    -834.324
  H      122.713     276.244    -835.562
  H      122.480     277.955    -833.872
  H      122.543     275.646    -831.841
  H      117.483     277.831    -838.618
  H      121.113     277.233    -830.509
  H      117.048     279.096    -837.504
  H      122.792     277.775    -830.717
  P      125.214     278.109    -833.950
  C      125.937     279.124    -831.700
  O      125.353     279.376    -832.969
  O      124.826     278.440    -835.351
  O      126.654     277.421    -833.830
  H      126.739     276.683    -834.486
  H      125.977     280.034    -831.139
  H      126.928     278.743    -831.833
  H      125.346     278.405    -831.172

 6  7  8  9  10  11  12  13  14  15  16  26  30  31  32  33  35 0
 6-311+G(2d,p)
 ****
 37  38 0
 6-311+G(2d,p)
 ****
 1  2  3  4  5  17  18  19  20  21  22  23  24  25 0
 3-21G
 ****
 27  28  29  34  36  39  40  41  42  43  44  45  46 0
 3-21G
 ****


