%nproc=1
%NoSave
%Mem=1900MB
#P OB98/GEN NMR

erre ene a

0 1
  C        1.108     169.958    -289.280
  O        1.486     171.165    -289.911
  H        0.323     170.147    -288.544
  H        0.721     169.271    -290.039
  H        1.972     169.497    -288.795
  P        2.094     172.315    -288.971
  C        4.245     173.035    -290.237
  O        3.683     172.260    -289.185
  C        5.396     172.266    -290.879
  O        4.923     171.004    -291.400
  C        6.047     172.980    -292.057
  O        6.982     173.959    -291.640
  C        6.738     171.814    -292.743
  O        7.938     171.471    -292.023
  C        5.693     170.700    -292.596
  N        4.520     168.019    -296.792
  C        5.500     167.876    -295.877
  N        5.746     168.636    -294.790
  C        4.855     169.633    -294.694
  C        3.807     169.911    -295.556
  C        3.647     169.043    -296.651
  N        2.659     169.195    -297.599
  N        3.126     171.042    -295.149
  C        3.733     171.417    -294.042
  N        4.790     170.604    -293.731
  O        1.907     171.728    -287.491
  O        1.488     173.669    -289.129
  H        8.409     172.308    -291.852
  H        1.936     172.454    -286.839
  H        6.177     167.040    -296.037
  H        3.446     172.265    -293.433
  H        6.146     169.714    -292.455
  H        7.032     172.034    -293.771
  H        5.297     173.404    -292.737
  H        6.136     172.047    -290.099
  H        4.622     173.976    -289.828
  H        2.745     168.637    -298.433
  H        2.103     170.038    -297.581
  H        3.470     173.250    -290.978
  P        7.041     175.328    -292.476
  C        6.857     176.829    -290.359
  O        6.267     176.416    -291.590
  O        6.039     175.054    -293.691
  O        8.404     175.720    -292.941
  H        6.273     175.598    -294.467
  H        6.226     177.553    -289.886
  H        7.816     177.263    -290.551
  H        6.971     175.981    -289.716

 6  7  8  9  10  11  12  13  14  15  25  28  32  33  34  35 0
 6-311+G(2d,p)
 ****
 36  39  40 0
 6-311+G(2d,p)
 ****
 1  2  3  4  5  16  17  18  19  20  21  22  23  24 0
 3-21G
 ****
 26  27  29  30  31  37  38  41  42  43  44  45  46  47 0
 3-21G
 ****
 48 0
 3-21G
 ****


