%nproc=1
%NoSave
%Mem=1900MB
#P OB98/GEN NMR

erre ene a

0 1
  C      -14.734      -8.618      -0.760
  O      -15.404      -7.370      -0.703
  P      -14.510      -6.044      -0.547
  C      -12.780      -4.925      -2.142
  O      -13.365      -6.127      -1.669
  C      -11.297      -5.138      -2.455
  O      -10.581      -5.304      -1.204
  C      -10.992      -6.366      -3.318
  O       -9.845      -6.044      -4.113
  C      -10.620      -7.421      -2.293
  O       -9.848      -8.480      -2.849
  C       -9.887      -6.569      -1.264
  N       -7.653     -10.037       1.660
  C       -7.457      -9.749       0.321
  N       -6.487     -10.447      -0.305
  N       -8.148      -8.858      -0.340
  C       -9.073      -8.229       0.425
  C       -9.386      -8.452       1.744
  C       -8.590      -9.413       2.473
  O       -8.670      -9.637       3.678
  N      -10.444      -7.682       2.147
  C      -10.715      -6.936       1.095
  N       -9.881      -7.198       0.042
  O      -13.722      -6.306       0.818
  O      -15.263      -4.752      -0.538
  H       -9.069      -8.083      -3.289
  H      -14.189      -5.906       1.577
  H       -7.077     -10.721       2.120
  H      -11.493      -6.191       1.040
  H       -8.844      -6.375      -1.544
  H      -11.531      -7.858      -1.867
  H       -5.896     -11.126       0.150
  H      -11.826      -6.671      -3.957
  H       -6.301     -10.233      -1.278
  H      -10.913      -4.229      -2.933
  H      -12.866      -4.160      -1.364
  H      -13.319      -4.578      -3.029
  P       -9.620      -6.863      -5.472
  C      -10.857      -7.033      -7.741
  O      -10.923      -6.664      -6.379
  O       -9.738      -8.388      -4.991
  O       -8.308      -6.619      -6.143
  H       -9.159      -8.949      -5.539
  H      -11.870      -7.219      -8.105
  H      -10.259      -7.938      -7.885
  H      -10.420      -6.215      -8.318
  H      -15.452      -9.404      -0.864
  H      -14.174      -8.763       0.140
  H      -14.070      -8.628      -1.599

 3  4  5  6  7  8  9  10  11  12  23  26  30  31 0
 6-311+G(2d,p)
 ****
 33  35  36  37  38 0
 6-311+G(2d,p)
 ****
 1  2  13  14  15  16  17  18  19  20  21  22  24  25 0
 3-21G
 ****
 27  28  29  32  34  39  40  41  42  43  44  45  46  47  48  49 0
 3-21G
 ****


