%nproc=1
%NoSave
%Mem=1900MB
#P OB98/GEN NMR

erre ene a

0 1
  C     -117.728     272.107      98.046
  O     -119.105     271.838      98.161
  P     -119.733     270.373      98.073
  C     -119.200     269.971     100.600
  O     -119.126     269.487      99.265
  C     -119.698     268.875     101.555
  O     -119.659     269.387     102.911
  C     -121.161     268.492     101.263
  O     -121.421     267.096     101.327
  C     -121.941     269.390     102.214
  O     -123.260     268.938     102.469
  C     -121.009     269.454     103.417
  N     -123.796     271.906     106.889
  C     -123.879     270.590     106.480
  N     -124.952     269.899     106.921
  N     -123.008     270.023     105.686
  C     -122.052     270.871     105.238
  C     -121.870     272.196     105.573
  C     -122.819     272.801     106.475
  O     -122.849     273.993     106.774
  N     -120.837     272.760     104.868
  C     -120.414     271.789     104.083
  N     -121.146     270.635     104.246
  O     -119.816     269.759      96.716
  O     -121.242     270.637      98.587
  H     -123.741     269.662     102.914
  H     -121.825     270.021      98.095
  H     -124.547     272.309     107.439
  H     -119.611     271.874     103.359
  H     -121.160     268.600     104.084
  H     -122.030     270.374     101.734
  H     -125.714     270.348     107.412
  H     -121.426     268.750     100.234
  H     -125.165     269.029     106.444
  H     -119.022     268.014     101.503
  H     -119.904     270.807     100.591
  H     -118.230     270.352     100.925
  P     -122.300     266.196     100.344
  C     -120.899     265.901      98.214
  O     -121.958     266.607      98.831
  O     -123.797     266.724     100.526
  O     -122.230     264.728     100.614
  H     -124.412     265.964     100.511
  H     -120.591     266.451      97.316
  H     -121.244     264.909      97.921
  H     -120.044     265.813      98.888
  H     -117.561     273.160      98.139
  H     -117.378     271.773      97.092
  H     -117.198     271.592      98.820

 3  4  5  6  7  8  9  10  11  12  23  26  30  31 0
 6-311+G(2d,p)
 ****
 33  35  36  37  38 0
 6-311+G(2d,p)
 ****
 1  2  13  14  15  16  17  18  19  20  21  22  24  25 0
 3-21G
 ****
 27  28  29  32  34  39  40  41  42  43  44  45  46  47  48  49 0
 3-21G
 ****


