%nproc=1
%NoSave
%Mem=1900MB
#P OB98/GEN NMR

erre ene a

0 1
  C      708.504     176.053     269.023
  O      707.277     176.040     269.728
  H      708.658     177.058     268.605
  H      708.471     175.335     268.200
  H      709.336     175.819     269.695
  P      706.941     174.720     270.563
  C      704.661     174.517     269.273
  O      705.856     173.887     269.723
  C      704.333     174.079     267.854
  O      705.413     174.390     266.948
  C      704.169     172.569     267.699
  O      702.973     172.092     268.271
  C      704.203     172.445     266.174
  O      702.940     172.806     265.590
  C      705.296     173.487     265.812
  N      706.576     172.862     265.484
  C      706.637     172.224     264.241
  O      705.649     172.223     263.489
  N      707.797     171.588     263.887
  C      708.817     171.598     264.689
  N      709.935     170.941     264.283
  C      708.808     172.286     265.999
  C      707.657     172.875     266.335
  O      706.079     175.290     271.788
  O      708.125     173.904     270.968
  H      702.993     172.543     264.655
  H      705.318     175.829     271.510
  H      709.675     172.266     266.628
  H      707.564     173.410     267.281
  H      704.976     174.087     264.950
  H      704.421     171.424     265.854
  H      705.039     172.040     268.098
  H      703.439     174.618     267.518
  H      709.900     170.463     263.384
  H      704.746     175.602     269.336
  H      710.765     170.846     264.835
  H      703.855     174.213     269.954
  P      703.015     170.944     269.404
  C      701.433     169.449     268.021
  O      702.718     169.564     268.645
  O      702.162     171.205     270.599
  O      704.579     170.816     269.737
  H      705.137     170.570     268.974
  H      701.350     168.492     267.549
  H      701.323     170.219     267.287
  H      700.667     169.550     268.761

 6  7  8  9  10  11  12  13  14  15  16  26  30  31  32  33  35 0
 6-311+G(2d,p)
 ****
 37  38 0
 6-311+G(2d,p)
 ****
 1  2  3  4  5  17  18  19  20  21  22  23  24  25 0
 3-21G
 ****
 27  28  29  34  36  39  40  41  42  43  44  45  46 0
 3-21G
 ****


