%nproc=1
%NoSave
%Mem=1900MB
#P OB98/GEN NMR

erre ene a

0 1
  C     -643.696    -116.698     -59.831
  O     -644.801    -117.295     -59.138
  P     -644.637    -117.544     -57.558
  C     -645.956    -119.749     -57.110
  O     -645.939    -118.320     -57.020
  C     -647.352    -120.269     -57.465
  O     -648.354    -119.690     -56.578
  C     -647.789    -119.928     -58.901
  O     -648.672    -120.964     -59.366
  C     -648.592    -118.660     -58.714
  O     -649.443    -118.405     -59.830
  C     -649.315    -118.974     -57.400
  N     -653.307    -116.011     -56.594
  C     -653.183    -117.131     -57.388
  N     -654.292    -117.554     -58.034
  N     -652.058    -117.804     -57.535
  C     -651.044    -117.283     -56.787
  C     -651.046    -116.178     -55.983
  C     -652.290    -115.432     -55.850
  O     -652.455    -114.431     -55.171
  N     -649.813    -115.951     -55.424
  C     -649.061    -116.936     -55.908
  N     -649.766    -117.786     -56.717
  O     -644.798    -116.077     -56.941
  O     -643.318    -118.150     -57.174
  H     -650.052    -117.666     -59.579
  H     -643.941    -115.756     -56.624
  H     -654.201    -115.534     -56.524
  H     -648.001    -117.066     -55.707
  H     -650.191    -119.623     -57.545
  H     -647.918    -117.798     -58.597
  H     -655.204    -117.124     -57.921
  H     -646.971    -119.816     -59.612
  H     -654.239    -118.398     -58.585
  H     -647.369    -121.356     -57.324
  H     -645.638    -120.182     -56.156
  H     -645.210    -120.063     -57.854
  P     -647.999    -122.183     -60.169
  C     -649.890    -122.814     -61.845
  O     -649.205    -123.132     -60.647
  O     -647.280    -123.048     -59.022
  O     -647.045    -121.768     -61.238
  H     -646.543    -123.564     -59.404
  H     -649.551    -123.501     -62.623
  H     -649.693    -121.779     -62.171
  H     -650.962    -122.952     -61.691
  H     -643.940    -116.591     -60.867
  H     -642.833    -117.322     -59.731
  H     -643.491    -115.735     -59.412

 3  4  5  6  7  8  9  10  11  12  23  26  30  31 0
 6-311+G(2d,p)
 ****
 33  35  36  37  38 0
 6-311+G(2d,p)
 ****
 1  2  13  14  15  16  17  18  19  20  21  22  24  25 0
 3-21G
 ****
 27  28  29  32  34  39  40  41  42  43  44  45  46  47  48  49 0
 3-21G
 ****


