%nproc=1
%NoSave
%Mem=1900MB
#P OB98/GEN NMR

erre ene a

0 1
  C      247.223     141.279    -142.706
  O      248.094     141.914    -141.793
  H      246.696     142.050    -143.277
  H      246.486     140.678    -142.169
  H      247.780     140.649    -143.403
  P      249.113     141.012    -140.945
  C      247.820     141.038    -138.715
  O      248.247     140.259    -139.826
  C      247.183     140.138    -137.660
  O      245.958     139.569    -138.172
  C      248.049     138.949    -137.264
  O      249.111     139.336    -136.413
  C      247.011     138.039    -136.628
  O      246.752     138.419    -135.271
  C      245.769     138.295    -137.512
  N      245.557     137.222    -138.483
  C      244.946     136.070    -138.001
  O      244.584     135.930    -136.835
  N      244.817     135.045    -138.900
  C      245.356     135.016    -140.155
  O      245.431     133.994    -140.831
  C      245.932     136.282    -140.631
  C      246.017     137.309    -139.783
  O      250.331     141.711    -140.442
  O      249.495     139.828    -141.955
  H      250.378     140.003    -142.335
  H      245.865     138.062    -135.058
  H      244.413     134.190    -138.545
  H      246.305     136.322    -141.647
  H      246.471     138.244    -140.100
  H      244.871     138.391    -136.892
  H      247.337     136.997    -136.626
  H      248.443     138.461    -138.163
  H      246.934     140.750    -136.783
  H      247.082     141.771    -139.063
  H      248.682     141.573    -138.300
  P      250.429     138.435    -136.304
  C      249.632     137.367    -134.105
  O      250.076     137.132    -135.438
  O      251.661     139.158    -135.873
  O      250.613     137.837    -137.780
  H      251.534     137.990    -138.069
  H      249.428     136.432    -133.627
  H      248.741     137.960    -134.125
  H      250.394     137.886    -133.562

 6  7  8  9  10  11  12  13  14  15  16  27  31  32  33  34  35 0
 6-311+G(2d,p)
 ****
 36  37 0
 6-311+G(2d,p)
 ****
 1  2  3  4  5  17  18  19  20  21  22  23  24  25 0
 3-21G
 ****
 26  28  29  30  38  39  40  41  42  43  44  45 0
 3-21G
 ****


