%nproc=1
%NoSave
%Mem=1900MB
#P OB98/GEN NMR

erre ene a

0 1
  C     -399.960     267.872     930.951
  O     -400.781     269.033     931.082
  P     -400.527     270.246     930.070
  C     -403.088     270.765     930.231
  O     -401.753     271.253     930.274
  C     -404.092     271.932     930.183
  O     -403.968     272.740     931.378
  C     -403.838     272.896     929.029
  O     -404.276     272.338     927.796
  C     -404.628     274.094     929.493
  O     -406.037     273.934     929.226
  C     -404.380     274.075     931.012
  N     -403.399     275.076     931.457
  C     -403.708     276.408     931.167
  O     -404.725     276.733     930.548
  N     -402.802     277.335     931.586
  C     -401.629     277.079     932.241
  O     -400.860     277.943     932.612
  C     -401.332     275.654     932.481
  C     -402.226     274.723     932.088
  O     -400.823     269.536     928.664
  O     -399.162     270.840     930.193
  H     -401.540     268.863     928.716
  H     -406.478     274.711     929.590
  H     -403.012     278.302     931.409
  H     -400.399     275.405     932.964
  H     -402.010     273.658     932.233
  H     -405.323     274.258     931.548
  H     -404.312     275.034     928.992
  H     -402.779     273.154     928.951
  H     -405.094     271.522     930.127
  H     -403.299     270.166     931.113
  H     -403.199     270.112     929.357
  P     -403.150     272.165     926.643
  C     -403.787     269.709     925.967
  O     -403.735     271.078     925.613
  O     -402.011     271.373     927.438
  O     -402.721     273.454     926.036
  H     -402.348     270.645     927.985
  H     -404.491     269.209     925.307
  H     -404.114     269.589     926.996
  H     -402.804     269.247     925.843
  H     -400.242     267.150     931.689
  H     -398.934     268.143     931.091
  H     -400.088     267.453     929.975

 3  4  5  6  7  8  9  10  11  12  13  24  28  29  30  31  32 0
 6-311+G(2d,p)
 ****
 33  34 0
 6-311+G(2d,p)
 ****
 1  2  14  15  16  17  18  19  20  21  22  23  25  26  27 0
 3-21G
 ****
 35  36  37  38  39  40  41  42  43  44  45 0
 3-21G
 ****


