%nproc=1
%NoSave
%Mem=1900MB
#P OB98/GEN NMR

erre ene a

0 1
  C     -343.189     364.376      69.483
  O     -342.077     365.012      70.137
  P     -342.072     366.558      70.571
  C     -343.842     366.380      72.448
  O     -342.485     366.645      72.119
  C     -344.406     367.492      73.347
  O     -345.836     367.308      73.533
  C     -343.851     367.530      74.763
  O     -342.531     368.028      74.810
  C     -344.878     368.409      75.467
  O     -344.591     369.803      75.277
  C     -346.187     368.036      74.733
  N     -347.109     367.272      75.558
  C     -347.817     367.983      76.528
  O     -347.597     369.177      76.710
  N     -348.756     367.307      77.278
  C     -348.890     366.027      77.140
  N     -349.841     365.419      77.906
  C     -348.058     365.221      76.232
  C     -347.197     365.898      75.475
  O     -342.887     367.441      69.683
  O     -340.531     366.994      70.559
  H     -340.465     367.951      70.395
  H     -343.733     369.973      75.717
  H     -348.175     364.141      76.183
  H     -346.559     365.386      74.764
  H     -346.698     368.941      74.377
  H     -344.917     368.229      76.547
  H     -343.882     366.518      75.186
  H     -344.243     368.461      72.845
  H     -350.403     366.000      78.508
  H     -343.896     365.431      72.991
  H     -350.041     364.431      77.855
  H     -344.429     366.292      71.525
  P     -341.404     367.062      75.417
  C     -340.988     365.359      73.502
  O     -340.534     366.501      74.199
  O     -342.236     365.782      75.917
  O     -340.613     367.658      76.533
  H     -341.864     365.456      76.757
  H     -340.605     365.392      72.480
  H     -342.084     365.310      73.473
  H     -340.604     364.452      73.992
  H     -342.954     363.349      69.297
  H     -343.387     364.870      68.555
  H     -344.054     364.436      70.111

 3  4  5  6  7  8  9  10  11  12  13  24  27  28  29  30  32 0
 6-311+G(2d,p)
 ****
 34  35 0
 6-311+G(2d,p)
 ****
 1  2  14  15  16  17  18  19  20  21  22  23  25  26 0
 3-21G
 ****
 31  33  36  37  38  39  40  41  42  43  44  45  46 0
 3-21G
 ****


