%nproc=1
%NoSave
%Mem=1900MB
#P OB98/GEN NMR

erre ene a

0 1
  C     -323.814     271.351     -73.575
  O     -323.187     270.583     -74.601
  P     -322.749     269.086     -74.201
  C     -320.183     269.272     -73.839
  O     -321.239     268.861     -74.706
  C     -318.949     269.726     -74.634
  O     -318.412     268.636     -75.430
  C     -319.233     270.891     -75.600
  O     -318.047     271.707     -75.622
  C     -319.383     270.188     -76.933
  O     -319.226     271.102     -78.026
  C     -318.308     269.124     -76.799
  N     -317.437     267.707     -81.571
  C     -317.262     268.933     -80.959
  N     -316.725     269.918     -81.728
  N     -317.577     269.177     -79.710
  C     -318.062     268.085     -79.065
  C     -318.272     266.817     -79.557
  C     -317.939     266.564     -80.942
  O     -318.072     265.499     -81.533
  N     -318.754     265.971     -78.569
  C     -318.897     266.761     -77.515
  N     -318.439     268.030     -77.749
  O     -323.621     268.177     -75.183
  O     -322.996     268.762     -72.769
  H     -318.300     271.421     -78.004
  H     -324.397     267.813     -74.709
  H     -317.187     267.572     -82.546
  H     -319.293     266.454     -76.569
  H     -317.294     269.528     -76.938
  H     -320.386     269.732     -77.001
  H     -316.419     269.787     -82.676
  H     -320.102     271.504     -75.324
  H     -316.545     270.815     -81.288
  H     -318.174     270.026     -73.913
  H     -319.897     268.445     -73.181
  H     -320.548     270.061     -73.187
  P     -317.953     272.929     -74.601
  C     -317.759     274.711     -76.473
  O     -317.164     274.122     -75.330
  O     -316.900     272.408     -73.504
  O     -319.256     273.309     -73.960
  H     -317.184     272.695     -72.613
  H     -317.387     275.733     -76.577
  H     -318.846     274.732     -76.402
  H     -317.472     274.142     -77.365
  H     -324.058     272.321     -73.955
  H     -323.146     271.451     -72.745
  H     -324.708     270.857     -73.256

 3  4  5  6  7  8  9  10  11  12  23  26  30  31 0
 6-311+G(2d,p)
 ****
 33  35  36  37  38 0
 6-311+G(2d,p)
 ****
 1  2  13  14  15  16  17  18  19  20  21  22  24  25 0
 3-21G
 ****
 27  28  29  32  34  39  40  41  42  43  44  45  46  47  48  49 0
 3-21G
 ****


