%nproc=1
%NoSave
%Mem=1900MB
#P OB98/GEN NMR

erre ene a

0 1
  C      385.787     300.828     534.065
  O      384.823     300.434     535.038
  P      383.896     299.159     534.735
  C      385.113     297.033     533.933
  O      384.745     297.838     535.053
  C      386.214     296.043     534.320
  O      387.344     296.708     534.921
  C      385.764     295.009     535.342
  O      384.929     294.037     534.741
  C      387.102     294.493     535.850
  O      387.642     293.501     534.966
  C      387.978     295.767     535.814
  N      388.200     296.346     537.131
  C      388.711     295.482     538.105
  O      388.905     294.295     537.838
  N      388.970     295.982     539.356
  C      388.734     297.230     539.617
  N      389.010     297.670     540.872
  C      388.185     298.174     538.621
  C      387.936     297.666     537.417
  O      383.198     299.171     533.420
  O      382.840     299.194     535.950
  H      387.736     293.932     534.095
  H      381.999     298.805     535.640
  H      388.009     299.209     538.884
  H      387.528     298.290     536.626
  H      388.958     295.540     535.379
  H      387.009     294.029     536.836
  H      385.226     295.509     536.156
  H      386.553     295.538     533.401
  H      389.377     297.001     541.538
  H      385.459     297.676     533.122
  H      388.909     298.631     541.155
  H      384.221     296.509     533.567
  P      383.409     294.447     534.434
  C      382.505     296.420     533.008
  O      383.405     295.325     533.092
  O      383.090     295.523     535.584
  O      382.431     293.316     534.467
  H      382.156     295.453     535.844
  H      382.842     297.081     532.203
  H      382.480     296.988     533.940
  H      381.508     296.057     532.766
  H      386.318     301.688     534.417
  H      385.291     301.066     533.147
  H      386.476     300.026     533.900

 3  4  5  6  7  8  9  10  11  12  13  23  27  28  29  30  32 0
 6-311+G(2d,p)
 ****
 34  35 0
 6-311+G(2d,p)
 ****
 1  2  14  15  16  17  18  19  20  21  22  24  25  26 0
 3-21G
 ****
 31  33  36  37  38  39  40  41  42  43  44  45  46 0
 3-21G
 ****


