%nproc=1
%NoSave
%Mem=1900MB
#P OB98/GEN NMR

erre ene a

0 1
  C       78.024     -41.100    -388.324
  O       78.514     -40.907    -386.993
  P       77.797     -41.767    -385.840
  C       75.575     -41.603    -384.509
  O       76.531     -40.920    -385.318
  C       75.038     -40.691    -383.396
  O       76.032     -40.507    -382.347
  C       74.636     -39.295    -383.881
  O       73.508     -38.882    -383.095
  C       75.840     -38.446    -383.497
  O       75.512     -37.058    -383.463
  C       76.184     -39.076    -382.153
  N       78.996     -35.581    -379.832
  C       77.675     -35.533    -380.240
  N       76.992     -34.412    -379.938
  N       77.084     -36.511    -380.881
  C       77.877     -37.590    -381.075
  C       79.196     -37.763    -380.708
  C       79.850     -36.662    -380.029
  O       81.012     -36.653    -379.644
  N       79.657     -39.008    -381.056
  C       78.635     -39.560    -381.694
  N       77.520     -38.758    -381.685
  O       78.837     -41.680    -384.624
  O       77.510     -43.176    -386.235
  H       75.402     -36.754    -384.387
  H       79.361     -42.503    -384.575
  H       79.408     -34.799    -379.356
  H       78.644     -40.529    -382.155
  H       75.495     -38.766    -381.354
  H       76.649     -38.589    -384.222
  H       77.375     -33.651    -379.401
  H       74.400     -39.234    -384.950
  H       76.006     -34.369    -380.186
  H       74.172     -41.185    -382.941
  H       76.039     -42.484    -384.060
  H       74.766     -41.974    -385.145
  P       72.163     -38.494    -383.869
  C       71.149     -36.337    -384.882
  O       72.170     -36.909    -384.089
  O       71.025     -38.707    -382.757
  O       71.873     -39.326    -385.083
  H       70.229     -39.096    -383.168
  H       71.001     -35.295    -384.566
  H       70.201     -36.874    -384.775
  H       71.457     -36.343    -385.932
  H       78.574     -40.479    -389.000
  H       76.987     -40.839    -388.364
  H       78.145     -42.126    -388.603

 3  4  5  6  7  8  9  10  11  12  23  26  30  31 0
 6-311+G(2d,p)
 ****
 33  35  36  37  38 0
 6-311+G(2d,p)
 ****
 1  2  13  14  15  16  17  18  19  20  21  22  24  25 0
 3-21G
 ****
 27  28  29  32  34  39  40  41  42  43  44  45  46  47  48  49 0
 3-21G
 ****


