%nproc=1
%NoSave
%Mem=1900MB
#P OB98/GEN NMR

erre ene a

0 1
  C      -20.919     -16.838     -73.959
  O      -20.794     -16.435     -72.607
  P      -22.078     -16.601     -71.657
  C      -24.250     -15.225     -71.259
  O      -22.958     -15.274     -71.850
  C      -24.499     -13.849     -70.649
  O      -23.579     -13.595     -69.567
  C      -24.304     -12.692     -71.620
  O      -25.435     -12.489     -72.452
  C      -24.137     -11.528     -70.658
  O      -25.426     -11.092     -70.184
  C      -23.337     -12.167     -69.515
  N      -19.713      -8.690     -68.910
  C      -21.039      -8.660     -68.525
  N      -21.472      -7.518     -67.950
  N      -21.865      -9.660     -68.685
  C      -21.294     -10.736     -69.282
  C      -19.992     -10.884     -69.705
  C      -19.093      -9.765     -69.532
  O      -17.924      -9.712     -69.900
  N      -19.784     -12.121     -70.255
  C      -20.953     -12.723     -70.164
  N      -21.912     -11.908     -69.621
  O      -21.475     -16.430     -70.185
  O      -22.810     -17.890     -71.819
  H      -25.258     -10.388     -69.526
  H      -22.103     -16.778     -69.524
  H      -19.118      -7.891     -68.769
  H      -21.156     -13.734     -70.493
  H      -23.672     -11.815     -68.535
  H      -23.658     -10.660     -71.119
  H      -20.902      -6.690     -67.856
  H      -23.385     -12.814     -72.206
  H      -22.454      -7.444     -67.715
  H      -25.516     -13.839     -70.237
  H      -24.318     -15.989     -70.480
  H      -25.004     -15.443     -72.022
  P      -25.146     -12.176     -74.000
  C      -23.904     -10.240     -75.209
  O      -24.535     -10.696     -74.027
  O      -26.613     -11.999     -74.612
  O      -24.359     -13.229     -74.706
  H      -26.613     -12.213     -75.563
  H      -23.791      -9.153     -75.149
  H      -24.502     -10.480     -76.091
  H      -22.913     -10.693     -75.299
  H      -19.993     -16.671     -74.468
  H      -21.693     -16.269     -74.431
  H      -21.166     -17.878     -74.000

 3  4  5  6  7  8  9  10  11  12  23  26  30  31 0
 6-311+G(2d,p)
 ****
 33  35  36  37  38 0
 6-311+G(2d,p)
 ****
 1  2  13  14  15  16  17  18  19  20  21  22  24  25 0
 3-21G
 ****
 27  28  29  32  34  39  40  41  42  43  44  45  46  47  48  49 0
 3-21G
 ****


