%nproc=1
%NoSave
%Mem=1900MB
#P OB98/GEN NMR

erre ene a

0 1
  C     -102.058    -151.308     -38.226
  O     -102.235    -150.129     -38.993
  P     -102.612    -148.776     -38.215
  C     -105.137    -149.390     -38.410
  O     -104.062    -149.005     -37.568
  C     -106.392    -148.578     -38.082
  O     -106.811    -148.900     -36.731
  C     -106.209    -147.058     -38.149
  O     -107.461    -146.503     -38.573
  C     -105.950    -146.679     -36.701
  O     -106.222    -145.308     -36.433
  C     -106.866    -147.664     -35.984
  N     -106.231    -145.543     -31.436
  C     -106.583    -144.964     -32.643
  N     -106.859    -143.643     -32.614
  N     -106.657    -145.620     -33.771
  C     -106.368    -146.936     -33.639
  C     -105.970    -147.616     -32.513
  C     -105.929    -146.888     -31.265
  O     -105.708    -147.378     -30.161
  N     -105.677    -148.926     -32.792
  C     -105.977    -149.055     -34.070
  N     -106.443    -147.888     -34.615
  O     -102.888    -147.745     -39.407
  O     -101.584    -148.276     -37.250
  H     -105.750    -144.773     -37.103
  H     -102.086    -147.229     -39.619
  H     -106.210    -144.990     -30.596
  H     -105.883    -149.962     -34.647
  H     -107.910    -147.326     -35.958
  H     -104.898    -146.866     -36.454
  H     -106.853    -143.081     -31.774
  H     -105.405    -146.741     -38.819
  H     -107.152    -143.199     -33.476
  H     -107.194    -148.897     -38.760
  H     -105.355    -150.451     -38.242
  H     -104.849    -149.257     -39.457
  P     -107.442    -145.070     -39.292
  C     -108.483    -143.835     -37.268
  O     -107.382    -143.955     -38.147
  O     -108.937    -144.937     -39.858
  O     -106.443    -144.935     -40.395
  H     -108.928    -144.420     -40.685
  H     -108.145    -143.351     -36.348
  H     -108.907    -144.811     -37.017
  H     -109.252    -143.213     -37.731
  H     -101.812    -152.122     -38.875
  H     -102.963    -151.531     -37.701
  H     -101.265    -151.160     -37.523

 3  4  5  6  7  8  9  10  11  12  23  26  30  31 0
 6-311+G(2d,p)
 ****
 33  35  36  37  38 0
 6-311+G(2d,p)
 ****
 1  2  13  14  15  16  17  18  19  20  21  22  24  25 0
 3-21G
 ****
 27  28  29  32  34  39  40  41  42  43  44  45  46  47  48  49 0
 3-21G
 ****


