%nproc=1
%NoSave
%Mem=1900MB
#P OB98/GEN NMR

erre ene a

0 1
  C      168.513    -306.870    -929.552
  O      169.395    -306.201    -928.675
  H      167.605    -307.163    -929.015
  H      168.233    -306.191    -930.363
  H      168.998    -307.752    -929.974
  P      169.893    -307.013    -927.385
  C      169.199    -305.477    -925.408
  O      170.252    -305.929    -926.251
  C      169.054    -303.953    -925.512
  O      168.626    -303.632    -926.864
  C      168.052    -303.337    -924.531
  O      168.699    -302.355    -923.713
  C      167.037    -302.630    -925.420
  O      166.629    -301.359    -924.902
  C      167.763    -302.488    -926.747
  N      165.342    -299.333    -929.943
  C      166.472    -299.173    -929.211
  N      167.123    -300.091    -928.462
  C      166.509    -301.291    -928.534
  C      165.365    -301.608    -929.255
  C      164.757    -300.557    -929.968
  N      163.583    -300.713    -930.668
  N      165.030    -302.939    -929.070
  C      165.930    -303.399    -928.227
  N      166.830    -302.438    -927.855
  O      171.325    -307.577    -927.834
  O      168.983    -308.111    -926.935
  H      166.041    -300.962    -925.572
  H      171.385    -308.527    -927.611
  H      166.900    -298.178    -929.222
  H      165.949    -304.405    -927.812
  H      168.391    -301.586    -926.783
  H      166.149    -303.262    -925.512
  H      167.565    -304.078    -923.890
  H      170.052    -303.507    -925.382
  H      169.424    -305.736    -924.372
  H      163.160    -299.878    -931.050
  H      163.084    -301.586    -930.602
  H      168.269    -305.976    -925.702
  P      168.751    -302.643    -922.133
  C      169.049    -300.144    -921.449
  O      169.602    -301.463    -921.451
  O      169.740    -303.907    -922.028
  O      167.416    -302.921    -921.529
  H      169.532    -304.429    -921.226
  H      169.727    -299.474    -920.963
  H      168.116    -300.149    -920.925
  H      168.890    -299.822    -922.457

 6  7  8  9  10  11  12  13  14  15  25  28  32  33  34  35 0
 6-311+G(2d,p)
 ****
 36  39  40 0
 6-311+G(2d,p)
 ****
 1  2  3  4  5  16  17  18  19  20  21  22  23  24 0
 3-21G
 ****
 26  27  29  30  31  37  38  41  42  43  44  45  46  47  48 0
 3-21G
 ****


