%nproc=1
%NoSave
%Mem=1900MB
#P OB98/GEN NMR

erre ene a

0 1
  C      803.437    -542.621     340.025
  O      804.111    -543.774     340.501
  P      805.524    -544.233     339.899
  C      806.168    -545.747     341.873
  O      805.793    -545.701     340.509
  C      806.790    -547.105     342.236
  O      805.727    -548.080     342.463
  C      807.726    -547.682     341.156
  O      808.758    -548.405     341.859
  C      806.823    -548.656     340.413
  O      807.549    -549.622     339.663
  C      805.974    -549.204     341.576
  N      804.735    -549.805     341.103
  C      804.836    -551.108     340.575
  O      805.944    -551.656     340.464
  N      803.686    -551.739     340.145
  C      802.570    -551.086     340.146
  N      801.463    -551.762     339.706
  C      802.441    -549.685     340.565
  C      803.559    -549.113     341.039
  O      806.641    -543.263     340.074
  O      805.185    -544.568     338.362
  H      807.980    -549.160     338.905
  H      805.111    -543.718     337.838
  H      801.494    -549.163     340.488
  H      803.558    -548.085     341.374
  H      806.539    -549.953     342.148
  H      806.188    -548.091     339.717
  H      808.177    -546.917     340.508
  H      807.339    -546.989     343.177
  H      801.590    -552.747     339.444
  H      805.259    -545.609     342.481
  H      800.533    -551.387     339.734
  H      806.858    -544.934     342.111
  P      810.165    -547.721     342.220
  C      810.250    -549.485     344.072
  O      810.986    -548.779     343.088
  O      810.065    -546.351     342.808
  O      810.948    -547.703     340.814
  H      811.699    -547.071     340.875
  H      810.830    -550.345     344.401
  H      809.292    -549.827     343.676
  H      810.072    -548.821     344.936
  H      802.518    -542.498     340.560
  H      803.230    -542.734     338.981
  H      804.054    -541.760     340.174

 3  4  5  6  7  8  9  10  11  12  13  23  27  28  29  30  32 0
 6-311+G(2d,p)
 ****
 34  35 0
 6-311+G(2d,p)
 ****
 1  2  14  15  16  17  18  19  20  21  22  24  25  26 0
 3-21G
 ****
 31  33  36  37  38  39  40  41  42  43  44  45  46 0
 3-21G
 ****


