%nproc=1
%NoSave
%Mem=1900MB
#P OB98/GEN NMR

erre ene a

0 1
  C      -44.328    -500.901     588.554
  O      -44.105    -500.888     587.158
  H      -43.758    -501.724     588.994
  H      -45.391    -501.050     588.762
  H      -43.995    -499.960     589.000
  P      -44.710    -499.655     586.336
  C      -45.874    -501.226     584.580
  O      -46.008    -500.188     585.551
  C      -47.048    -501.183     583.605
  O      -48.283    -501.547     584.248
  C      -47.326    -499.793     583.046
  O      -46.346    -499.368     582.130
  C      -48.698    -500.022     582.425
  O      -48.587    -500.681     581.152
  C      -49.357    -500.958     583.476
  N      -50.313    -500.257     584.320
  C      -51.586    -500.053     583.756
  O      -51.836    -500.459     582.623
  N      -52.521    -499.369     584.492
  C      -52.231    -498.939     585.683
  N      -53.198    -498.262     586.348
  C      -50.924    -499.161     586.315
  C      -50.009    -499.814     585.584
  O      -43.643    -499.452     585.162
  O      -44.984    -498.424     587.142
  H      -49.504    -500.763     580.805
  H      -43.465    -500.262     584.653
  H      -50.719    -498.800     587.320
  H      -49.020    -500.015     585.982
  H      -49.881    -501.784     582.973
  H      -49.226    -499.085     582.250
  H      -47.444    -499.074     583.871
  H      -46.848    -501.906     582.800
  H      -54.082    -498.112     585.871
  H      -45.812    -502.208     585.065
  H      -53.076    -497.857     587.271
  H      -44.926    -501.064     584.050
  P      -46.250    -497.824     581.696
  C      -46.257    -498.396     579.189
  O      -46.933    -497.719     580.243
  O      -44.889    -497.220     581.789
  O      -47.345    -497.114     582.635
  H      -48.254    -497.446     582.519
  H      -46.796    -498.260     578.275
  H      -46.197    -499.440     579.416
  H      -45.270    -497.997     579.084

 6  7  8  9  10  11  12  13  14  15  16  26  30  31  32  33  35 0
 6-311+G(2d,p)
 ****
 37  38 0
 6-311+G(2d,p)
 ****
 1  2  3  4  5  17  18  19  20  21  22  23  24  25 0
 3-21G
 ****
 27  28  29  34  36  39  40  41  42  43  44  45  46 0
 3-21G
 ****


