%nproc=1
%NoSave
%Mem=1900MB
#P OB98/GEN NMR

erre ene a

0 1
  C       70.906    -110.593    -102.176
  O       71.459    -109.872    -101.077
  P       72.658    -108.847    -101.362
  C       74.516    -110.635    -101.471
  O       73.808    -109.618    -102.173
  C       75.903    -110.858    -102.097
  O       75.733    -111.412    -103.429
  C       76.742    -109.588    -102.280
  O       77.586    -109.176    -101.209
  C       77.662    -110.002    -103.426
  O       78.781    -110.747    -102.907
  C       76.789    -110.917    -104.278
  N       77.531    -109.737    -109.201
  C       78.281    -110.428    -108.315
  N       78.012    -110.696    -107.021
  C       76.824    -110.184    -106.665
  C       75.950    -109.460    -107.459
  C       76.345    -109.235    -108.788
  N       75.587    -108.522    -109.688
  N       74.831    -109.092    -106.742
  C       75.037    -109.569    -105.531
  N       76.220    -110.248    -105.436
  O       73.124    -108.046    -100.193
  O       72.033    -107.892    -102.490
  H       79.379    -110.906    -103.660
  H       72.341    -106.978    -102.336
  H       79.224    -110.813    -108.694
  H       74.361    -109.447    -104.697
  H       77.339    -111.787    -104.654
  H       78.079    -109.141    -103.957
  H       76.112    -108.748    -102.595
  H       76.456    -111.587    -101.492
  H       73.945    -111.565    -101.502
  H       75.963    -108.368    -110.609
  H       74.727    -108.092    -109.381
  H       74.572    -110.333    -100.425
  P       77.126    -108.048    -100.170
  C       78.438    -106.038    -101.209
  O       77.196    -106.665    -100.976
  O       77.856    -108.047     -98.872
  O       75.553    -108.311    -100.045
  H       75.047    -108.108    -100.849
  H       78.296    -105.243    -101.946
  H       79.167    -106.752    -101.598
  H       78.809    -105.596    -100.280
  H       70.121    -111.231    -101.826
  H       71.670    -111.186    -102.634
  H       70.512    -109.903    -102.893

 3  4  5  6  7  8  9  10  11  12  22  25  29  30  31  32 0
 6-311+G(2d,p)
 ****
 33  36  37 0
 6-311+G(2d,p)
 ****
 1  2  13  14  15  16  17  18  19  20  21  23  24  26 0
 3-21G
 ****
 27  28  34  35  38  39  40  41  42  43  44  45  46  47  48 0
 3-21G
 ****


