%nproc=1
%NoSave
%Mem=1900MB
#P OB98/GEN NMR

erre ene a

0 1
  C      156.685     -57.465     -54.774
  O      156.801     -58.891     -54.633
  P      157.458     -59.494     -53.296
  C      158.962     -61.392     -54.290
  O      157.804     -61.041     -53.547
  C      158.762     -62.751     -54.967
  O      157.838     -62.634     -56.074
  C      160.027     -63.346     -55.567
  O      160.870     -63.907     -54.575
  C      159.448     -64.380     -56.525
  O      159.120     -65.597     -55.834
  C      158.171     -63.673     -57.020
  N      158.312     -63.139     -58.372
  C      158.240     -64.059     -59.412
  O      158.127     -65.271     -59.233
  N      158.339     -63.543     -60.675
  C      158.568     -62.232     -60.991
  O      158.666     -61.833     -62.144
  C      158.715     -61.320     -59.848
  C      158.588     -61.808     -58.612
  O      156.192     -59.593     -52.317
  O      158.541     -58.672     -52.678
  H      158.562     -66.122     -56.442
  H      156.489     -59.516     -51.391
  H      158.261     -64.188     -61.444
  H      158.920     -60.278     -60.054
  H      158.693     -61.145     -57.757
  H      157.325     -64.371     -57.008
  H      160.146     -64.645     -57.325
  H      160.562     -62.583     -56.143
  H      158.324     -63.438     -54.231
  H      159.819     -61.453     -53.613
  H      159.157     -60.615     -55.034
  P      162.440     -63.591     -54.701
  C      163.147     -66.104     -54.858
  O      163.180     -64.893     -54.132
  O      162.619     -62.481     -53.561
  O      162.841     -63.150     -56.069
  H      162.024     -62.632     -52.806
  H      163.134     -65.926     -55.936
  H      162.256     -66.671     -54.572
  H      164.035     -66.689     -54.607
  H      156.229     -57.235     -55.715
  H      157.658     -57.022     -54.731
  H      156.081     -57.076     -53.981

 3  4  5  6  7  8  9  10  11  12  13  23  28  29  30  31  32 0
 6-311+G(2d,p)
 ****
 33  34 0
 6-311+G(2d,p)
 ****
 1  2  14  15  16  17  18  19  20  21  22  24  25  26 0
 3-21G
 ****
 27  35  36  37  38  39  40  41  42  43  44  45 0
 3-21G
 ****


