%nproc=1
%NoSave
%Mem=1900MB
#P OB98/GEN NMR

erre ene a

0 1
  C      323.184     524.195     145.385
  O      324.298     523.398     145.013
  P      325.659     523.563     145.856
  C      327.081     523.559     143.669
  O      326.839     522.977     144.938
  C      328.572     523.807     143.469
  O      329.016     524.768     144.466
  C      329.462     522.567     143.605
  O      330.574     522.745     142.712
  C      329.945     522.653     145.040
  O      331.134     521.902     145.266
  C      330.100     524.161     145.200
  N      332.759     524.771     149.461
  C      333.142     524.228     148.248
  N      334.437     523.851     148.144
  N      332.336     524.073     147.235
  C      331.079     524.514     147.484
  C      330.571     525.032     148.650
  C      331.483     525.234     149.750
  O      331.205     525.791     150.812
  N      329.224     525.279     148.541
  C      328.938     524.986     147.292
  N      330.042     524.560     146.594
  O      325.496     522.469     147.012
  O      325.923     524.936     146.399
  H      331.288     521.870     146.238
  H      325.114     522.863     147.821
  H      333.431     524.887     150.204
  H      327.966     525.066     146.835
  H      331.050     524.532     144.790
  H      329.173     522.258     145.715
  H      335.122     523.965     148.878
  H      328.946     521.631     143.387
  H      334.752     523.479     147.256
  H      328.714     524.275     142.483
  H      326.548     524.513     143.611
  H      326.686     522.900     142.886
  P      330.859     521.590     141.638
  C      332.786     520.560     143.034
  O      332.390     521.143     141.805
  O      330.867     522.401     140.250
  O      329.849     520.494     141.611
  H      330.531     521.823     139.532
  H      333.692     519.965     142.867
  H      332.009     519.912     143.445
  H      333.017     521.357     143.751
  H      322.359     523.977     144.740
  H      323.441     525.230     145.299
  H      322.912     523.978     146.397

 3  4  5  6  7  8  9  10  11  12  23  26  30  31 0
 6-311+G(2d,p)
 ****
 33  35  36  37  38 0
 6-311+G(2d,p)
 ****
 1  2  13  14  15  16  17  18  19  20  21  22  24  25 0
 3-21G
 ****
 27  28  29  32  34  39  40  41  42  43  44  45  46  47  48  49 0
 3-21G
 ****


