%nproc=1
%NoSave
%Mem=1900MB
#P OB98/GEN NMR

erre ene a

0 1
  C      288.552    -217.413     -32.933
  O      289.909    -217.858     -32.803
  P      291.157    -216.887     -33.076
  C      292.755    -218.626     -34.104
  O      292.510    -217.749     -33.009
  C      293.371    -219.951     -33.643
  O      292.359    -220.824     -33.105
  C      294.070    -220.742     -34.744
  O      295.353    -220.203     -35.008
  C      294.070    -222.147     -34.146
  O      295.150    -222.293     -33.205
  C      292.720    -222.183     -33.423
  N      290.886    -226.655     -35.095
  C      291.933    -226.351     -34.299
  N      292.362    -225.131     -33.904
  C      291.565    -224.169     -34.394
  C      290.462    -224.325     -35.221
  C      290.126    -225.644     -35.580
  N      289.066    -225.952     -36.402
  N      289.914    -223.105     -35.543
  C      290.658    -222.222     -34.906
  N      291.668    -222.815     -34.200
  O      291.172    -215.657     -32.224
  O      291.040    -216.498     -34.624
  H      295.097    -223.195     -32.840
  H      291.439    -215.620     -34.777
  H      292.507    -227.198     -33.933
  H      290.507    -221.151     -34.925
  H      292.787    -222.719     -32.468
  H      294.189    -222.927     -34.904
  H      293.461    -220.735     -35.655
  H      294.071    -219.728     -32.828
  H      293.441    -218.126     -34.801
  H      288.910    -226.918     -36.636
  H      288.524    -225.201     -36.804
  H      291.805    -218.814     -34.620
  P      296.187    -220.698     -36.283
  C      298.373    -220.963     -34.966
  O      297.718    -220.297     -36.030
  O      295.632    -220.303     -37.610
  O      296.212    -222.295     -36.119
  H      296.260    -222.707     -37.003
  H      298.096    -220.495     -34.018
  H      299.455    -220.868     -35.106
  H      298.110    -222.023     -34.945
  H      287.888    -218.221     -32.705
  H      288.380    -217.082     -33.936
  H      288.375    -216.604     -32.255

 3  4  5  6  7  8  9  10  11  12  22  25  29  30  31  32 0
 6-311+G(2d,p)
 ****
 33  36  37 0
 6-311+G(2d,p)
 ****
 1  2  13  14  15  16  17  18  19  20  21  23  24  26 0
 3-21G
 ****
 27  28  34  35  38  39  40  41  42  43  44  45  46  47  48 0
 3-21G
 ****


