%nproc=1
%NoSave
%Mem=1900MB
#P OB98/GEN NMR

erre ene a

0 1
  C      417.555     186.863     747.210
  O      418.346     185.694     747.312
  H      418.091     187.604     746.617
  H      417.383     187.266     748.214
  H      416.595     186.643     746.726
  P      417.618     184.348     747.793
  C      417.749     183.173     745.471
  O      416.909     183.719     746.492
  C      416.941     182.249     744.564
  O      416.901     180.915     745.168
  C      415.486     182.704     744.321
  O      415.128     182.392     742.963
  C      414.697     181.801     745.248
  O      413.342     181.657     744.838
  C      415.513     180.519     745.156
  N      411.705     178.198     747.467
  C      411.740     178.893     746.273
  N      410.564     179.048     745.617
  N      412.828     179.403     745.770
  C      413.940     179.151     746.519
  C      414.030     178.482     747.717
  C      412.812     177.946     748.271
  O      412.709     177.333     749.337
  N      415.330     178.506     748.189
  C      415.994     179.196     747.287
  N      415.198     179.612     746.252
  O      416.387     184.907     748.657
  O      418.463     183.412     748.577
  H      412.885     181.072     745.481
  H      416.633     184.928     749.601
  H      410.826     177.848     747.830
  H      417.049     179.440     747.343
  H      415.317     179.961     744.230
  H      414.709     182.212     746.274
  H      409.683     178.674     745.928
  H      415.320     183.773     744.514
  H      410.589     179.526     744.721
  H      417.477     182.146     743.609
  H      418.556     182.604     745.953
  H      418.188     183.994     744.902
  P      415.045     183.598     741.916
  C      416.684     182.575     740.155
  O      416.421     183.626     741.072
  O      415.164     184.903     742.840
  O      413.801     183.608     741.090
  H      414.623     185.627     742.458
  H      417.629     182.743     739.682
  H      415.913     182.548     739.413
  H      416.708     181.642     740.679

 6  7  8  9  10  11  12  13  14  15  26  29  33  34 0
 6-311+G(2d,p)
 ****
 36  38  39  40  41 0
 6-311+G(2d,p)
 ****
 1  2  3  4  5  16  17  18  19  20  21  22  23  24  25 0
 3-21G
 ****
 27  28  30  31  32  35  37  42  43  44  45  46  47 0
 3-21G
 ****
 48  49 0
 3-21G
 ****


