%nproc=1
%NoSave
%Mem=1900MB
#P OB98/GEN NMR

erre ene a

0 1
  C     -583.024    -273.314    -167.976
  O     -581.646    -273.625    -167.893
  P     -580.985    -274.403    -169.138
  C     -579.737    -272.374    -170.174
  O     -580.795    -273.316    -170.303
  C     -578.967    -272.220    -171.485
  O     -578.282    -273.465    -171.772
  C     -579.848    -271.874    -172.691
  O     -579.110    -270.979    -173.522
  C     -579.993    -273.199    -173.408
  O     -580.290    -273.020    -174.794
  C     -578.643    -273.862    -173.113
  N     -578.697    -275.314    -173.243
  C     -578.896    -275.826    -174.529
  O     -579.089    -275.062    -175.473
  N     -578.913    -277.187    -174.703
  C     -578.855    -277.965    -173.671
  N     -578.875    -279.311    -173.892
  C     -578.767    -277.464    -172.283
  C     -578.673    -276.142    -172.146
  O     -582.188    -275.313    -169.668
  O     -579.774    -275.210    -168.791
  H     -579.584    -272.450    -175.180
  H     -581.853    -276.150    -170.041
  H     -578.757    -278.157    -171.455
  H     -578.582    -275.687    -171.174
  H     -577.870    -273.477    -173.792
  H     -580.812    -273.778    -172.955
  H     -580.795    -271.415    -172.403
  H     -578.196    -271.455    -171.341
  H     -578.948    -279.629    -174.852
  H     -579.041    -272.726    -169.406
  H     -578.830    -279.995    -173.149
  H     -580.150    -271.411    -169.849
  P     -579.923    -269.807    -174.256
  C     -579.284    -268.260    -172.303
  O     -580.335    -268.791    -173.081
  O     -581.323    -270.531    -174.562
  O     -579.343    -269.208    -175.496
  H     -581.892    -269.932    -175.069
  H     -579.691    -267.496    -171.643
  H     -578.524    -267.814    -172.942
  H     -578.842    -269.057    -171.691
  H     -583.328    -272.801    -167.087
  H     -583.588    -274.218    -168.077
  H     -583.198    -272.688    -168.826

 3  4  5  6  7  8  9  10  11  12  13  21  23  27  28  29  30  32 0
 6-311+G(2d,p)
 ****
 34  35 0
 6-311+G(2d,p)
 ****
 1  2  14  15  16  17  18  19  20  22  24  25  26 0
 3-21G
 ****
 31  33  36  37  38  39  40  41  42  43  44  45  46 0
 3-21G
 ****


