%nproc=1
%NoSave
%Mem=1900MB
#P OB98/GEN NMR

erre ene a

0 1
  C       88.012       7.051    -164.731
  O       87.227       7.896    -165.550
  H       87.900       6.022    -165.076
  H       87.674       7.115    -163.695
  H       89.071       7.331    -164.793
  P       87.415       9.478    -165.374
  C       88.100       9.775    -167.869
  O       87.197      10.130    -166.829
  C       87.839      10.639    -169.105
  O       86.571      10.218    -169.701
  C       87.725      12.141    -168.808
  O       88.297      12.864    -169.908
  C       86.226      12.381    -168.784
  O       85.848      13.726    -169.047
  C       85.765      11.399    -169.871
  N       84.337      11.081    -169.770
  C       83.473      11.717    -170.659
  O       83.828      12.463    -171.572
  N       82.137      11.469    -170.459
  C       81.596      10.690    -169.478
  O       80.384      10.525    -169.338
  C       82.558      10.052    -168.564
  C       83.860      10.274    -168.749
  O       88.990       9.627    -165.136
  O       86.611      10.110    -164.285
  H       89.201       9.570    -164.182
  H       86.167      14.270    -168.294
  H       81.497      11.924    -171.095
  H       82.164       9.435    -167.769
  H       84.600       9.836    -168.078
  H       85.975      11.805    -170.867
  H       85.815      12.096    -167.805
  H       88.207      12.451    -167.874
  H       88.623      10.441    -169.846
  H       87.961       8.724    -168.126
  H       89.129       9.919    -167.517
  P       89.392      13.987    -169.564
  C       90.956      13.397    -171.591
  O       90.094      14.346    -170.962
  O       90.490      13.121    -168.777
  O       88.829      15.143    -168.805
  H       90.573      12.213    -169.129
  H       91.330      13.806    -172.506
  H       90.409      12.501    -171.798
  H       91.775      13.173    -170.940

 6  7  8  9  10  11  12  13  14  15  16  27  31  32  33  34  35 0
 6-311+G(2d,p)
 ****
 36  37 0
 6-311+G(2d,p)
 ****
 1  2  3  4  5  17  18  19  20  21  22  23  24  25 0
 3-21G
 ****
 26  28  29  30  38  39  40  41  42  43  44  45 0
 3-21G
 ****


