%nproc=1
%NoSave
%Mem=1900MB
#P OB98/GEN NMR

erre ene a

0 1
  C     -139.296     462.464    -414.868
  O     -138.524     461.659    -414.006
  H     -138.840     463.455    -414.917
  H     -140.312     462.574    -414.479
  H     -139.323     462.040    -415.875
  P     -138.991     460.152    -413.712
  C     -136.855     459.233    -414.812
  O     -138.277     459.257    -414.845
  C     -136.291     458.365    -415.937
  O     -136.929     458.724    -417.196
  C     -134.772     458.505    -416.128
  O     -134.176     457.215    -416.237
  C     -134.649     459.251    -417.453
  O     -133.406     459.020    -418.103
  C     -135.887     458.731    -418.195
  N     -136.226     459.550    -419.341
  C     -135.596     459.213    -420.554
  O     -134.815     458.263    -420.586
  N     -135.814     459.992    -421.655
  C     -136.576     461.039    -421.562
  N     -136.736     461.779    -422.684
  C     -137.238     461.450    -420.297
  C     -137.025     460.670    -419.244
  O     -140.464     459.967    -413.590
  O     -138.195     459.731    -412.386
  H     -133.462     459.371    -419.016
  H     -138.673     458.985    -411.952
  H     -137.850     462.337    -420.276
  H     -137.464     460.892    -418.273
  H     -135.740     457.696    -418.529
  H     -134.747     460.327    -417.276
  H     -134.294     459.052    -415.318
  H     -136.575     457.322    -415.740
  H     -136.259     461.470    -423.519
  H     -136.543     458.847    -413.830
  H     -137.274     462.634    -422.728
  H     -136.492     460.259    -414.925
  P     -133.857     456.453    -414.860
  C     -135.230     454.271    -415.195
  O     -135.120     455.522    -414.517
  O     -133.934     457.626    -413.764
  O     -132.533     455.771    -414.851
  H     -133.042     457.812    -413.426
  H     -136.114     453.764    -414.867
  H     -134.372     453.670    -414.976
  H     -135.287     454.441    -416.250

 6  7  8  9  10  11  12  13  14  15  16  26  30  31  32  33  35 0
 6-311+G(2d,p)
 ****
 37  38 0
 6-311+G(2d,p)
 ****
 1  2  3  4  5  17  18  19  20  21  22  23  24  25 0
 3-21G
 ****
 27  28  29  34  36  39  40  41  42  43  44  45  46 0
 3-21G
 ****


