%nproc=1
%NoSave
%Mem=1900MB
#P OB98/GEN NMR

erre ene a

0 1
  C      186.208     138.683     146.859
  O      186.518     137.773     145.824
  H      186.751     138.388     147.761
  H      185.136     138.660     147.071
  H      186.511     139.696     146.580
  P      185.852     138.055     144.392
  C      183.737     136.798     145.236
  O      184.265     137.962     144.610
  C      182.564     136.261     144.419
  O      181.562     137.294     144.281
  C      182.927     135.848     142.998
  O      183.541     134.571     142.957
  C      181.564     135.888     142.320
  O      180.828     134.679     142.544
  C      180.874     137.060     143.032
  N      178.547     141.531     142.275
  C      178.363     140.561     143.197
  N      179.042     139.403     143.343
  C      180.004     139.300     142.410
  C      180.304     140.202     141.404
  C      179.527     141.371     141.354
  N      179.689     142.340     140.394
  N      181.330     139.721     140.613
  C      181.648     138.557     141.139
  N      180.878     138.265     142.228
  O      186.200     136.726     143.568
  O      186.330     139.286     143.698
  H      181.452     133.941     142.399
  H      187.013     136.868     143.048
  H      177.562     140.738     143.911
  H      182.418     137.891     140.765
  H      179.828     136.837     143.277
  H      181.661     136.015     141.242
  H      183.575     136.604     142.536
  H      182.115     135.422     144.965
  H      183.388     137.055     146.241
  H      184.529     136.047     145.313
  H      179.080     143.142     140.405
  H      180.344     142.179     139.640
  P      184.523     134.234     141.739
  C      182.876     132.577     140.599
  O      183.617     133.782     140.494
  O      185.234     132.878     142.204
  O      185.514     135.304     141.423
  H      186.124     133.064     142.558
  H      182.328     132.416     139.695
  H      182.195     132.648     141.421
  H      183.546     131.759     140.760

 6  7  8  9  10  11  12  13  14  15  25  28  32  33  34  35 0
 6-311+G(2d,p)
 ****
 36  37  40 0
 6-311+G(2d,p)
 ****
 1  2  3  4  5  16  17  18  19  20  21  22  23  24 0
 3-21G
 ****
 26  27  29  30  31  38  39 41  42  43  44  45  46  47  48 0
 3-21G
 ****


