%nproc=1
%NoSave
%Mem=1900MB
#P OB98/GEN NMR

erre ene a

0 1
  C      238.490    -193.871    -248.997
  O      238.098    -192.632    -249.605
  P      237.399    -191.434    -248.792
  C      235.076    -192.533    -248.558
  O      236.219    -192.028    -247.880
  C      233.833    -192.522    -247.663
  O      232.659    -192.935    -248.428
  C      233.925    -193.442    -246.432
  O      233.288    -192.753    -245.354
  C      233.112    -194.650    -246.882
  O      232.680    -195.476    -245.816
  C      231.983    -193.938    -247.637
  N      231.155    -194.792    -248.481
  C      230.137    -195.529    -247.861
  O      229.977    -195.504    -246.640
  N      229.319    -196.307    -248.647
  C      229.501    -196.353    -249.930
  N      228.650    -197.134    -250.649
  C      230.570    -195.612    -250.621
  C      231.348    -194.859    -249.844
  O      236.961    -190.300    -249.662
  O      238.492    -190.942    -247.733
  H      238.420    -189.977    -247.621
  H      232.198    -194.920    -245.178
  H      230.683    -195.671    -251.693
  H      232.142    -194.256    -250.279
  H      231.348    -193.403    -246.919
  H      233.727    -195.261    -247.550
  H      234.951    -193.682    -246.142
  H      233.649    -191.487    -247.348
  H      227.920    -197.620    -250.141
  H      235.280    -193.563    -248.863
  H      228.694    -197.237    -251.653
  H      234.902    -191.935    -249.460
  P      234.181    -192.095    -244.195
  C      234.470    -194.255    -242.765
  O      235.082    -193.259    -243.558
  O      233.093    -191.855    -243.036
  O      234.861    -190.809    -244.534
  H      233.392    -191.126    -242.466
  H      234.873    -195.232    -243.055
  H      233.384    -194.275    -242.888
  H      234.710    -194.069    -241.715
  H      238.931    -194.507    -249.736
  H      237.630    -194.352    -248.580
  H      239.201    -193.678    -248.221

 3  4  5  6  7  8  9  10  11  12  13  24  27  28  29  30  32 0
 6-311+G(2d,p)
 ****
 34  35 0
 6-311+G(2d,p)
 ****
 1  2  14  15  16  17  18  19  20  21  22  23  25  26 0
 3-21G
 ****
 31  33  36  37  38  39  40  41  42  43  44  45  46 0
 3-21G
 ****


