%nproc=1
%NoSave
%Mem=1900MB
#P OB98/GEN NMR

erre ene a

0 1
  C      339.611    -899.040     -52.480
  O      340.847    -898.510     -52.012
  P      342.028    -898.250     -53.075
  C      341.822    -895.620     -53.138
  O      341.806    -896.870     -53.812
  C      341.713    -894.480     -54.165
  O      342.790    -894.590     -55.146
  C      340.408    -894.480     -54.946
  O      339.385    -893.780     -54.270
  C      340.811    -893.850     -56.263
  O      340.913    -892.420     -56.115
  C      342.215    -894.460     -56.476
  N      342.303    -895.790     -57.155
  C      341.776    -895.970     -58.421
  O      341.221    -895.070     -59.068
  N      341.912    -897.200     -58.985
  C      342.649    -898.230     -58.476
  O      342.793    -899.310     -59.043
  C      343.321    -897.970     -57.204
  C      343.097    -896.780     -56.594
  O      341.739    -899.340     -54.227
  O      343.404    -898.390     -52.520
  H      340.023    -892.090     -55.911
  H      342.462    -900.000     -54.269
  H      341.474    -897.370     -59.878
  H      343.962    -898.730     -56.779
  H      343.586    -896.570     -55.644
  H      342.862    -893.790     -57.042
  H      340.069    -894.020     -57.038
  H      340.100    -895.530     -55.157
  H      341.844    -893.530     -53.648
  H      342.735    -895.500     -52.552
  H      340.988    -895.560     -52.442
  P      338.372    -894.550     -53.307
  C      339.642    -893.370     -51.422
  O      339.093    -894.590     -51.855
  O      337.884    -895.900     -53.801
  O      337.188    -893.510     -53.065
  H      336.445    -893.700     -53.689
  H      339.959    -893.470     -50.370
  H      338.907    -892.560     -51.484
  H      340.531    -893.130     -52.034
  H      338.937    -899.153     -51.657
  H      339.781    -899.993     -52.935
  H      339.186    -898.372     -53.200

 3  4  5  6  7  8  9  10  11  12  13  23  28  29  30  31  32 0
 6-311+G(2d,p)
 ****
 33  34 0
 6-311+G(2d,p)
 ****
 1  2  14  15  16  17  18  19  20  21  22  24  25  26  27 0
 3-21G
 ****
 35  36  37  38  39  40  41  42  43  44  45 0
 3-21G
 ****


