%nproc=1
%NoSave
%Mem=1900MB
#P OB98/GEN NMR

erre ene a

0 1
  C      396.104    -507.400    -235.862
  O      396.845    -508.602    -235.952
  P      398.338    -508.579    -236.528
  C      399.262    -509.308    -234.244
  O      399.338    -508.348    -235.294
  C      400.473    -510.236    -234.284
  O      400.349    -511.183    -235.366
  C      401.799    -509.517    -234.532
  O      402.240    -508.878    -233.349
  C      402.675    -510.675    -234.994
  O      403.173    -511.423    -233.879
  C      401.679    -511.526    -235.803
  N      402.949    -513.736    -240.218
  C      403.085    -514.143    -238.944
  N      402.763    -513.472    -237.808
  C      402.264    -512.262    -238.110
  C      402.102    -511.698    -239.358
  C      402.448    -512.507    -240.467
  N      402.247    -512.129    -241.777
  N      401.587    -510.419    -239.256
  C      401.463    -510.211    -237.957
  N      401.792    -511.324    -237.233
  O      398.552    -507.674    -237.695
  O      398.611    -510.101    -236.932
  H      403.702    -512.164    -234.238
  H      398.795    -510.151    -237.889
  H      403.505    -515.133    -238.800
  H      401.108    -509.288    -237.504
  H      401.810    -512.598    -235.615
  H      403.540    -510.336    -235.576
  H      401.683    -508.804    -235.343
  H      400.499    -510.799    -233.350
  H      398.347    -509.888    -234.370
  H      402.398    -512.836    -242.475
  H      401.607    -511.359    -241.970
  H      399.217    -508.789    -233.283
  P      403.319    -507.702    -233.442
  C      401.906    -505.586    -233.737
  O      402.710    -506.560    -234.378
  O      404.714    -508.131    -233.794
  O      403.284    -507.030    -231.998
  H      404.169    -506.690    -231.760
  H      400.924    -506.001    -233.517
  H      401.800    -504.729    -234.398
  H      402.383    -505.258    -232.799
  H      395.135    -507.608    -235.457
  H      395.999    -506.972    -236.837
  H      396.617    -506.712    -235.224

 3  4  5  6  7  8  9  10  11  12  22  25  29  30  31  32 0
 6-311+G(2d,p)
 ****
 33  36  37 0
 6-311+G(2d,p)
 ****
 1  2  13  14  15  16  17  18  19  20  21  23  24  26 0
 3-21G
 ****
 27  28  34  35  38  39  40  41  42  43  44  45  46  47  48 0
 3-21G
 ****


