%nproc=1
%NoSave
%Mem=1900MB
#P OB98/GEN NMR

erre ene a

0 1
  C     -105.849     207.721     161.865
  O     -105.420     206.426     161.493
  H     -105.131     208.451     161.490
  H     -105.902     207.804     162.956
  H     -106.829     207.931     161.427
  P     -106.317     205.195     161.999
  C     -105.888     203.212     163.592
  O     -105.382     204.431     163.063
  C     -104.783     202.458     164.340
  O     -103.803     202.006     163.377
  C     -104.053     203.316     165.380
  O     -103.712     202.495     166.500
  C     -102.782     203.729     164.654
  O     -101.732     204.075     165.552
  C     -102.512     202.486     163.805
  N      -97.750     203.642     162.402
  C      -98.274     203.217     163.576
  N      -99.557     202.901     163.853
  C     -100.324     203.023     162.749
  C      -99.937     203.447     161.492
  C      -98.581     203.778     161.335
  N      -98.046     204.249     160.163
  N     -101.027     203.478     160.639
  C     -102.047     203.072     161.369
  N     -101.675     202.804     162.660
  O     -106.896     204.333     160.931
  O     -107.381     205.928     162.942
  H     -101.632     203.351     166.207
  H     -106.951     206.569     163.540
  H      -97.568     203.114     164.396
  H     -103.075     202.972     161.021
  H     -102.016     201.688     164.365
  H     -102.980     204.599     164.021
  H     -104.634     204.177     165.711
  H     -105.221     201.561     164.797
  H     -106.278     202.582     162.782
  H      -97.059     204.462     160.136
  H      -98.642     204.353     159.351
  H     -106.717     203.454     164.274
  P     -104.322     202.854     167.939
  C     -104.067     204.746     169.677
  O     -103.480     204.072     168.573
  O     -104.539     201.694     168.858
  O     -105.718     203.559     167.567
  H     -106.408     203.247     168.184
  H     -103.415     205.528     170.005
  H     -104.222     204.052     170.477
  H     -105.006     205.165     169.381

 6  7  8  9  10  11  12  13  14  15  25  28  32  33  34  35 0
 6-311+G(2d,p)
 ****
 36  39  40 0
 6-311+G(2d,p)
 ****
 1  2  3  4  5  16  17  18  19  20  21  22  23  24 0
 3-21G
 ****
 26  27  29  30  31  37  38  41  42  43  44  45  46  47 0
 3-21G
 ****
 48 0
 3-21G
 ****


