%nproc=1
%NoSave
%Mem=1900MB
#P OB98/GEN NMR

erre ene a

0 1
  C     -472.555     384.974    -307.334
  O     -472.687     384.091    -306.239
  H     -471.629     384.766    -307.878
  H     -473.400     384.820    -308.010
  H     -472.561     386.012    -306.991
  P     -471.543     384.163    -305.113
  C     -472.697     382.009    -304.224
  O     -472.062     383.239    -303.905
  C     -473.166     381.328    -302.945
  O     -472.033     380.973    -302.121
  C     -474.064     382.197    -302.063
  O     -475.410     382.208    -302.510
  C     -473.928     381.471    -300.735
  O     -474.741     380.286    -300.741
  C     -472.440     381.102    -300.726
  N     -470.503     382.655    -296.252
  C     -471.337     381.638    -296.572
  N     -471.811     381.295    -297.789
  C     -471.332     382.120    -298.732
  C     -470.485     383.204    -298.559
  C     -470.055     383.456    -297.244
  N     -469.219     384.500    -296.915
  N     -470.248     383.837    -299.765
  C     -470.916     383.128    -300.655
  N     -471.596     382.091    -300.080
  O     -471.683     385.645    -304.525
  O     -470.157     383.861    -305.577
  H     -474.713     379.930    -301.649
  H     -470.857     385.910    -304.078
  H     -471.666     381.020    -295.740
  H     -470.937     383.326    -301.719
  H     -472.250     380.134    -300.246
  H     -474.250     382.078    -299.885
  H     -473.666     383.213    -301.964
  H     -473.683     380.398    -303.227
  H     -471.985     381.358    -304.742
  H     -469.119     384.702    -295.930
  H     -469.004     385.191    -297.621
  H     -473.545     382.204    -304.890
  P     -475.961     383.571    -303.154
  C     -478.174     383.939    -301.838
  O     -477.553     383.491    -303.039
  O     -475.681     383.378    -304.716
  O     -475.330     384.816    -302.616
  H     -475.583     384.232    -305.163
  H     -479.234     383.820    -301.919
  H     -477.942     384.971    -301.680
  H     -477.813     383.362    -301.013

 6  7  8  9  10  11  12  13  14  15  25  28  32  33  34  35 0
 6-311+G(2d,p)
 ****
 36  39  40 0
 6-311+G(2d,p)
 ****
 1  2  3  4  5  16  17  18  19  20  21  22  23  24 0
 3-21G
 ****
 26  27  29  30  31  37  38  41  42  43  44  45  46  47 0
 3-21G
 ****
 48 0
 3-21G
 ****


