%nproc=1
%NoSave
%Mem=1900MB
#P OB98/GEN NMR

erre ene a

0 1
  C      177.786    -641.152     -82.163
  O      177.776    -639.746     -82.346
  H      178.598    -641.408     -81.478
  H      177.948    -641.671     -83.109
  H      176.841    -641.479     -81.714
  P      176.840    -639.144     -83.502
  C      176.341    -639.755     -85.963
  O      177.134    -640.035     -84.808
  C      177.188    -639.848     -87.237
  O      177.569    -641.218     -87.484
  C      176.453    -639.411     -88.494
  O      176.175    -638.019     -88.556
  C      177.268    -640.064     -89.603
  O      178.387    -639.281     -90.016
  C      177.774    -641.356     -88.904
  N      177.097    -642.548     -89.421
  C      177.656    -643.101     -90.585
  O      178.634    -642.603     -91.167
  N      177.034    -644.204     -91.081
  C      175.891    -644.776     -90.582
  O      175.358    -645.740     -91.096
  C      175.340    -644.134     -89.365
  C      175.963    -643.074     -88.856
  O      176.965    -637.667     -83.741
  O      175.362    -639.608     -83.072
  H      178.048    -638.390     -90.227
  H      174.669    -639.076     -83.549
  H      177.420    -644.615     -91.916
  H      174.434    -644.567     -88.945
  H      175.569    -642.583     -87.964
  H      178.846    -641.484     -89.061
  H      176.657    -640.257     -90.490
  H      175.472    -639.906     -88.507
  H      178.098    -639.260     -87.091
  H      175.949    -638.729     -85.866
  H      175.504    -640.464     -86.012
  P      174.819    -637.418     -89.121
  C      173.205    -637.901     -91.111
  O      174.469    -638.157     -90.516
  O      174.646    -635.937     -89.038
  O      173.728    -638.088     -88.125
  H      173.003    -637.433     -87.989
  H      173.120    -638.457     -92.021
  H      173.115    -636.856     -91.322
  H      172.428    -638.198     -90.438

 6  7  8  9  10  11  12  13  14  15  16  26  31  32  33  34  35 0
 6-311+G(2d,p)
 ****
 36  37 0
 6-311+G(2d,p)
 ****
 1  2  3  4  5  17  18  19  20  21  22  23  24  25 0
 3-21G
 ****
 27  28  29  30  38  39  40  41  42  43  44  45 0
 3-21G
 ****


