%nproc=1
%NoSave
%Mem=1900MB
#P OB98/GEN NMR

erre ene a

0 1
  C      241.783     -87.762    -100.916
  O      240.494     -88.324    -100.739
  P      239.401     -87.476     -99.927
  C      239.842     -88.312     -97.507
  O      239.961     -87.245     -98.440
  C      239.352     -87.797     -96.153
  O      240.373     -86.957     -95.550
  C      238.069     -86.964     -96.237
  O      237.281     -87.177     -95.056
  C      238.573     -85.533     -96.191
  O      237.566     -84.634     -95.733
  C      239.770     -85.683     -95.247
  N      240.495     -80.695     -94.839
  C      239.470     -81.476     -94.342
  N      238.459     -80.823     -93.729
  N      239.441     -82.780     -94.434
  C      240.519     -83.298     -95.082
  C      241.601     -82.630     -95.602
  C      241.613     -81.183     -95.502
  O      242.479     -80.430     -95.946
  N      242.511     -83.497     -96.150
  C      241.962     -84.686     -96.003
  N      240.736     -84.614     -95.392
  O      238.213     -88.529     -99.723
  O      238.916     -86.249    -100.627
  H      237.949     -83.735     -95.770
  H      237.475     -88.316    -100.322
  H      240.467     -79.693     -94.753
  H      242.391     -85.618     -96.341
  H      239.451     -85.709     -94.199
  H      238.887     -85.213     -97.192
  H      238.388     -79.815     -93.682
  H      237.458     -87.159     -97.124
  H      237.674     -81.368     -93.396
  H      239.208     -88.655     -95.481
  H      240.818     -88.783     -97.379
  H      239.148     -89.063     -97.895
  P      235.687     -87.151     -95.260
  C      235.544     -84.837     -94.067
  O      235.264     -85.606     -95.225
  O      235.129     -87.733     -93.878
  O      235.210     -87.931     -96.441
  H      234.250     -88.135     -94.006
  H      236.246     -84.042     -94.338
  H      235.979     -85.443     -93.265
  H      234.614     -84.389     -93.706
  H      242.395     -88.441    -101.473
  H      242.228     -87.583     -99.960
  H      241.699     -86.838    -101.449

 3  4  5  6  7  8  9  10  11  12  23  26  30  31 0
 6-311+G(2d,p)
 ****
 33  35  36  37  38 0
 6-311+G(2d,p)
 ****
 1  2  13  14  15  16  17  18  19  20  21  22  24  25 0
 3-21G
 ****
 27  28  29  32  34  39  40  41  42  43  44  45  46  47  48  49 0
 3-21G
 ****


