%nproc=1
%NoSave
%Mem=1900MB
#P OB98/GEN NMR

erre ene a

0 1
  C     -581.507    -161.175    -181.489
  O     -582.085    -162.422    -181.158
  H     -582.263    -160.385    -181.449
  H     -580.722    -160.946    -180.762
  H     -581.064    -161.217    -182.488
  P     -583.292    -162.927    -182.088
  C     -582.066    -164.745    -183.493
  O     -582.594    -163.425    -183.446
  C     -581.858    -165.151    -184.948
  O     -583.098    -165.032    -185.683
  C     -580.850    -164.281    -185.691
  O     -579.513    -164.667    -185.446
  C     -581.252    -164.553    -187.130
  O     -580.754    -165.840    -187.540
  C     -582.783    -164.582    -187.026
  N     -585.095    -161.575    -190.464
  C     -584.641    -162.845    -190.538
  N     -584.059    -163.579    -189.572
  C     -583.970    -162.882    -188.430
  C     -584.390    -161.583    -188.203
  C     -584.977    -160.913    -189.290
  N     -585.410    -159.609    -189.227
  N     -584.109    -161.200    -186.906
  C     -583.542    -162.256    -186.359
  N     -583.406    -163.285    -187.249
  O     -584.023    -161.576    -182.534
  O     -584.220    -163.919    -181.471
  H     -581.258    -166.102    -188.331
  H     -584.897    -161.772    -182.916
  H     -584.765    -163.330    -191.502
  H     -583.205    -162.317    -185.332
  H     -583.240    -165.288    -187.731
  H     -580.844    -163.817    -187.831
  H     -581.004    -163.216    -185.476
  H     -581.557    -166.206    -184.970
  H     -582.777    -165.430    -183.017
  H     -585.677    -159.169    -190.096
  H     -585.193    -159.062    -188.408
  H     -581.118    -164.776    -182.952
  P     -578.366    -163.559    -185.675
  C     -577.980    -163.141    -183.140
  O     -578.401    -162.602    -184.388
  O     -578.980    -162.648    -186.835
  O     -577.029    -164.119    -186.039
  H     -578.273    -162.287    -187.404
  H     -578.059    -162.390    -182.382
  H     -576.963    -163.465    -183.216
  H     -578.601    -163.973    -182.883

 6  7  8  9  10  11  12  13  14  15  25  28  32  33  34  35 0
 6-311+G(2d,p)
 ****
 36  39  40 0
 6-311+G(2d,p)
 ****
 1  2  3  4  5  16  17  18  19  20  21  22  23  24 0
 3-21G
 ****
 26  27  29  30  31  37  38  41  42  43  44  45  46  47 0
 3-21G
 ****
 48 0
 3-21G
 ****


