%nproc=1
%NoSave
%Mem=1900MB
#P OB98/GEN NMR

erre ene a

0 1
  C     -105.696    -408.402      19.594
  O     -107.079    -408.658      19.727
  H     -105.184    -409.345      19.383
  H     -105.301    -407.992      20.526
  H     -105.500    -407.709      18.771
  P     -108.094    -407.419      19.771
  C     -109.939    -408.845      18.670
  O     -109.574    -408.039      19.780
  C     -109.483    -410.293      18.877
  O     -109.935    -410.738      20.192
  C     -110.047    -411.284      17.839
  O     -109.064    -412.309      17.649
  C     -111.259    -411.819      18.577
  O     -111.773    -412.977      17.971
  C     -110.670    -411.962      19.982
  N     -111.673    -412.164      21.019
  C     -111.484    -413.230      21.892
  O     -110.513    -413.985      21.853
  N     -112.465    -413.414      22.830
  C     -113.593    -412.656      22.967
  O     -114.430    -412.853      23.839
  C     -113.753    -411.564      21.995
  C     -112.799    -411.370      21.080
  O     -107.862    -406.354      18.754
  O     -107.935    -406.854      21.261
  H     -107.324    -406.094      21.259
  H     -111.949    -412.818      17.020
  H     -112.342    -414.182      23.472
  H     -114.646    -410.959      22.065
  H     -112.884    -410.575      20.346
  H     -109.944    -412.782      20.017
  H     -112.066    -411.079      18.569
  H     -110.276    -410.813      16.879
  H     -108.386    -410.320      18.894
  H     -109.464    -408.432      17.775
  H     -111.026    -408.813      18.541
  P     -107.640    -412.049      16.954
  C     -105.915    -413.402      18.310
  O     -106.714    -413.346      17.135
  O     -106.981    -410.782      17.398
  O     -107.934    -412.005      15.380
  H     -107.346    -411.347      14.963
  H     -105.348    -414.309      18.313
  H     -106.547    -413.374      19.173
  H     -105.249    -412.565      18.329

 6  7  8  9  10  11  12  13  14  15  16  27  31  32  33  34  35 0
 6-311+G(2d,p)
 ****
 36  37 0
 6-311+G(2d,p)
 ****
 1  2  3  4  5  17  18  19  20  21  22  23  24  25 0
 3-21G
 ****
 26  28  29  30  38  39  40  41  42  43  44  45 0
 3-21G
 ****


