%nproc=1
%NoSave
%Mem=1900MB
#P OB98/GEN NMR

erre ene a

0 1
  C       61.753    -874.353     112.345
  O       61.962    -872.963     112.510
  H       61.148    -874.717     113.178
  H       62.711    -874.874     112.355
  H       61.227    -874.556     111.409
  P       62.655    -872.189     111.291
  C       64.837    -871.682     112.609
  O       64.243    -872.333     111.499
  C       66.313    -872.043     112.710
  O       66.461    -873.457     112.988
  C       67.119    -871.774     111.442
  O       67.519    -870.412     111.348
  C       68.306    -872.689     111.664
  O       69.212    -872.087     112.607
  C       67.639    -873.929     112.281
  N       67.326    -878.895     111.307
  C       67.808    -878.236     112.428
  N       68.289    -879.012     113.424
  N       67.830    -876.942     112.552
  C       67.334    -876.294     111.477
  C       66.819    -876.824     110.312
  C       66.794    -878.268     110.185
  O       66.359    -878.903     109.231
  N       66.408    -875.850     109.447
  C       66.674    -874.722     110.081
  N       67.247    -874.933     111.306
  O       62.387    -870.643     111.627
  O       62.145    -872.541     109.933
  H       68.706    -871.933     113.420
  H       62.237    -870.158     110.790
  H       67.348    -879.902     111.251
  H       66.475    -873.732     109.685
  H       68.292    -874.430     113.014
  H       68.879    -872.877     110.748
  H       68.347    -880.018     113.364
  H       66.573    -872.096     110.544
  H       68.620    -878.559     114.256
  H       66.741    -871.494     113.554
  H       64.325    -871.988     113.525
  H       64.716    -870.600     112.481
  P       68.217    -869.938     109.977
  C       70.443    -869.033     110.970
  O       69.794    -870.067     110.231
  O       67.976    -868.355     109.990
  O       67.688    -870.585     108.741
  H       68.013    -868.010     109.085
  H       71.486    -869.257     111.057
  H       70.010    -868.967     111.946
  H       70.320    -868.100     110.461

 6  7  8  9  10  11  12  13  14  15  26  29  33  34 0
 6-311+G(2d,p)
 ****
 36  38  39  40  41 0
 6-311+G(2d,p)
 ****
 1  2  3  4  5  16  17  18  19  20  21  22  23  24  25 0
 3-21G
 ****
 27  28  30  31  32  35  37  42  43  44  45  46  47 0
 3-21G
 ****
 48  49 0
 3-21G
 ****


