%nproc=1
%NoSave
%Mem=1900MB
#P OB98/GEN NMR

erre ene a

0 1
  C      112.227     -77.320     142.699
  O      113.511     -76.712     142.889
  P      114.868     -77.561     143.011
  C      115.055     -78.947     140.843
  O      115.486     -77.788     141.551
  C      116.228     -79.662     140.165
  O      115.806     -80.932     139.624
  C      116.842     -78.910     138.992
  O      117.659     -77.841     139.440
  C      117.590     -80.035     138.281
  O      118.867     -80.275     138.899
  C      116.643     -81.232     138.492
  N      115.853     -81.536     137.309
  C      116.229     -82.664     136.574
  O      117.222     -83.319     136.901
  N      115.487     -83.011     135.468
  C      114.505     -82.258     135.092
  N      113.800     -82.657     133.995
  C      114.129     -81.012     135.782
  C      114.837     -80.715     136.872
  O      114.728     -78.814     143.814
  O      115.918     -76.567     143.709
  H      118.701     -80.351     139.855
  H      116.544     -77.091     144.243
  H      113.321     -80.394     135.416
  H      114.623     -79.820     137.446
  H      117.214     -82.127     138.770
  H      117.783     -79.814     137.226
  H      116.047     -78.533     138.337
  H      116.987     -79.862     140.934
  H      114.081     -83.518     133.549
  H      114.334     -78.633     140.082
  H      113.017     -82.141     133.620
  H      114.554     -79.621     141.546
  P      117.561     -76.410     138.727
  C      115.384     -75.548     139.779
  O      116.795     -75.423     139.727
  O      117.046     -76.422     137.323
  O      119.066     -75.859     138.778
  H      119.223     -75.295     137.995
  H      115.029     -75.147     140.732
  H      115.075     -76.595     139.693
  H      114.938     -74.969     138.963
  H      111.476     -76.559     142.647
  H      112.017     -77.973     143.520
  H      112.230     -77.882     141.788

 3  4  5  6  7  8  9  10  11  12  13  23  27  28  29  30  32 0
 6-311+G(2d,p)
 ****
 34  35 0
 6-311+G(2d,p)
 ****
 1  2  14  15  16  17  18  19  20  21  22  24  25  26 0
 3-21G
 ****
 31  33  36  37  38  39  40  41  42  43  44  45  46 0
 3-21G
 ****


