%nproc=1
%NoSave
%Mem=1900MB
#P OB98/GEN NMR

erre ene a

0 1
  C     -351.265    -484.082     -85.083
  O     -350.217    -483.146     -84.930
  H     -351.589    -484.078     -86.128
  H     -352.113    -483.813     -84.451
  H     -350.911    -485.084     -84.826
  P     -349.673    -482.918     -83.435
  C     -351.762    -481.453     -82.887
  O     -350.346    -481.526     -82.998
  C     -352.151    -480.497     -81.763
  O     -351.980    -481.130     -80.474
  C     -351.311    -479.222     -81.695
  O     -351.676    -478.257     -82.667
  C     -351.645    -478.765     -80.287
  O     -352.972    -478.205     -80.265
  C     -351.590    -480.105     -79.524
  N     -350.266    -480.390     -78.964
  C     -349.777    -479.501     -78.007
  O     -350.442    -478.527     -77.660
  N     -348.527    -479.714     -77.480
  C     -347.828    -480.741     -77.858
  N     -346.597    -480.899     -77.305
  C     -348.306    -481.715     -78.858
  C     -349.519    -481.482     -79.363
  O     -348.141    -482.512     -83.654
  O     -349.886    -484.045     -82.482
  H     -353.222    -478.130     -79.328
  H     -347.747    -482.208     -82.800
  H     -347.684    -482.548     -79.152
  H     -349.939    -482.158     -80.101
  H     -352.320    -480.122     -78.704
  H     -350.970    -477.998     -79.911
  H     -350.238    -479.445     -81.751
  H     -353.220    -480.266     -81.872
  H     -346.272    -480.183     -76.664
  H     -352.142    -482.460     -82.673
  H     -345.922    -481.575     -77.643
  H     -352.196    -481.101     -83.828
  P     -350.833    -478.233     -84.035
  C     -348.430    -478.737     -83.169
  O     -349.349    -477.765     -83.654
  O     -351.433    -476.969     -84.811
  O     -350.923    -479.485     -84.850
  H     -351.438    -477.125     -85.778
  H     -347.491    -478.268     -82.962
  H     -348.293    -479.498     -83.908
  H     -348.815    -479.176     -82.272

 6  7  8  9  10  11  12  13  14  15  16  26  30  31  32  33  35 0
 6-311+G(2d,p)
 ****
 37  38 0
 6-311+G(2d,p)
 ****
 1  2  3  4  5  17  18  19  20  21  22  23  24  25 0
 3-21G
 ****
 27  28  29  34  36  39  40  41  42  43  44  45  46 0
 3-21G
 ****


