%nproc=1
%NoSave
%Mem=1900MB
#P OB98/GEN NMR

erre ene a

0 1
  C      200.378     436.554     440.748
  O      199.781     437.768     440.339
  H      201.099     436.776     441.539
  H      200.899     436.096     439.908
  H      199.626     435.861     441.139
  P      198.465     437.715     439.431
  C      199.197     439.785     438.061
  O      198.201     439.205     438.892
  C      198.659     441.032     437.346
  O      197.464     440.665     436.600
  C      198.240     442.114     438.351
  O      198.345     443.428     437.787
  C      196.778     441.806     438.591
  O      196.033     442.932     439.065
  C      196.338     441.307     437.213
  N      191.260     440.751     437.152
  C      192.012     441.901     437.268
  N      191.313     443.065     437.390
  N      193.318     441.921     437.302
  C      193.874     440.681     437.248
  C      193.241     439.463     437.147
  C      191.797     439.467     437.083
  O      191.079     438.468     436.997
  N      194.143     438.425     437.130
  C      195.319     439.013     437.224
  N      195.212     440.378     437.273
  O      197.282     437.517     440.492
  O      198.446     436.644     438.379
  H      195.095     442.779     438.847
  H      196.496     437.125     440.061
  H      190.255     440.795     437.107
  H      196.277     438.499     437.235
  H      196.039     442.151     436.578
  H      196.713     441.038     439.366
  H      190.320     443.068     437.569
  H      198.812     442.080     439.274
  H      191.826     443.856     437.790
  H      199.394     441.393     436.612
  H      199.498     439.015     437.340
  H      200.089     440.038     438.658
  P      199.766     444.175     437.865
  C      198.974     446.711     437.872
  O      199.645     445.639     437.229
  O      200.674     443.387     436.815
  O      200.380     444.205     439.236
  H      201.417     442.936     437.280
  H      199.026     447.585     437.256
  H      199.441     446.910     438.814
  H      197.949     446.447     438.031

 6  7  8  9  10  11  12  13  14  15  26  29  33  34 0
 6-311+G(2d,p)
 ****
 36  38  39  40  41 0
 6-311+G(2d,p)
 ****
 1  2  3  4  5  16  17  18  19  20  21  22  23  24  25 0
 3-21G
 ****
 27  28  30  31  32  35  37  42  43  44  45  46  47 0
 3-21G
 ****
 48  49 0
 3-21G
 ****


