%nproc=1
%NoSave
%Mem=1900MB
#P OB98/GEN NMR

erre ene a

0 1
  C      305.186    -363.416     241.769
  O      304.299    -363.141     240.700
  H      305.199    -364.495     241.942
  H      304.840    -362.919     242.679
  H      306.203    -363.083     241.520
  P      304.272    -361.623     240.162
  C      303.369    -360.489     242.353
  O      304.455    -360.703     241.462
  C      303.583    -359.200     243.156
  O      302.484    -359.050     244.089
  C      304.878    -359.184     243.946
  O      305.403    -357.848     243.933
  C      304.442    -359.541     245.367
  O      305.365    -359.064     246.348
  C      303.040    -358.917     245.414
  N      302.186    -359.565     246.419
  C      302.588    -359.437     247.755
  O      303.618    -358.831     248.040
  N      301.832    -360.039     248.729
  C      300.809    -360.767     248.403
  N      300.110    -361.361     249.408
  C      300.387    -360.971     246.997
  C      301.107    -360.342     246.069
  O      302.728    -361.445     239.778
  O      305.223    -361.354     239.042
  H      304.953    -359.185     247.231
  H      302.115    -361.845     240.424
  H      299.538    -361.607     246.768
  H      300.862    -360.431     245.017
  H      303.102    -357.850     245.649
  H      304.386    -360.631     245.465
  H      305.638    -359.871     243.579
  H      303.520    -358.346     242.465
  H      300.446    -361.206     250.355
  H      303.270    -361.334     243.044
  H      299.336    -361.983     249.264
  H      302.451    -360.417     241.756
  P      306.780    -357.559     243.147
  C      308.375    -358.027     245.125
  O      307.956    -358.419     243.820
  O      307.100    -356.117     242.919
  O      306.559    -358.315     241.749
  H      306.946    -357.768     241.045
  H      309.158    -358.675     245.458
  H      307.547    -358.092     245.800
  H      308.734    -357.019     245.097

 6  7  8  9  10  11  12  13  14  15  16  26  30  31  32  33  35 0
 6-311+G(2d,p)
 ****
 37  38 0
 6-311+G(2d,p)
 ****
 1  2  3  4  5  17  18  19  20  21  22  23  24  25 0
 3-21G
 ****
 27  28  29  34  36  39  40  41  42  43  44  45  46 0
 3-21G
 ****


