%nproc=1
%NoSave
%Mem=1900MB
#P OB98/GEN NMR

erre ene a

0 1
  C       56.944     -31.698    -139.062
  O       58.134     -31.617    -138.272
  P       57.976     -31.149    -136.744
  C       59.515     -29.039    -136.868
  O       59.326     -30.358    -136.385
  C       60.874     -28.901    -137.561
  O       61.944     -29.126    -136.594
  C       61.090     -29.869    -138.730
  O       61.833     -29.156    -139.729
  C       61.948     -30.961    -138.117
  O       62.671     -31.687    -139.100
  C       62.809     -30.136    -137.155
  N       63.432     -30.949    -136.114
  C       64.816     -30.898    -136.017
  O       65.518     -30.272    -136.809
  N       65.373     -31.632    -135.006
  C       64.700     -32.456    -134.150
  O       65.249     -33.093    -133.261
  C       63.249     -32.558    -134.373
  C       62.693     -31.812    -135.331
  O       58.111     -32.540    -135.971
  O       56.708     -30.401    -136.493
  H       58.755     -33.146    -136.374
  H       62.045     -32.024    -139.772
  H       66.375     -31.584    -134.899
  H       62.690     -33.245    -133.753
  H       61.633     -31.879    -135.535
  H       63.603     -29.615    -137.706
  H       61.316     -31.663    -137.562
  H       60.153     -30.237    -139.157
  H       60.971     -27.867    -137.913
  H       59.470     -28.329    -136.036
  H       58.695     -28.784    -137.548
  P       61.013     -28.303    -140.821
  C       61.993     -29.137    -143.101
  O       61.962     -28.143    -142.102
  O       61.077     -26.850    -140.145
  O       59.616     -28.766    -141.068
  H       61.967     -26.610    -139.839
  H       62.505     -28.736    -143.980
  H       60.982     -29.434    -143.395
  H       62.544     -30.010    -142.741
  H       57.194     -32.020    -140.051
  H       56.479     -30.735    -139.107
  H       56.269     -32.400    -138.619

 3  4  5  6  7  8  9  10  11  12  13  24  28  29  30  31  32 0
 6-311+G(2d,p)
 ****
 33  34 0
 6-311+G(2d,p)
 ****
 1  2  14  15  16  17  18  19  20  21  22  23  25  26  27 0
 3-21G
 ****
 35  36  37  38  39  40  41  42  43  44  45 0
 3-21G
 ****


