%nproc=1
%NoSave
%Mem=1900MB
#P OB98/GEN NMR

erre ene a

0 1
  C      -64.320     -76.275     -13.527
  O      -65.070     -75.206     -14.067
  P      -64.332     -74.044     -14.882
  C      -64.751     -72.360     -12.986
  O      -63.777     -72.978     -13.820
  C      -64.184     -72.134     -11.587
  O      -63.543     -73.333     -11.104
  C      -63.120     -71.045     -11.518
  O      -63.709     -69.761     -11.565
  C      -62.436     -71.386     -10.199
  O      -63.183     -70.859      -9.090
  C      -62.491     -72.921     -10.202
  N      -57.949     -74.536      -8.538
  C      -58.929     -73.831      -7.936
  N      -60.098     -73.404      -8.460
  C      -60.191     -73.758      -9.752
  C      -59.257     -74.445     -10.511
  C      -58.095     -74.866      -9.844
  N      -57.116     -75.638     -10.430
  N      -59.704     -74.588     -11.812
  C      -60.876     -73.990     -11.836
  N      -61.240     -73.531     -10.601
  O      -65.112     -73.461     -16.013
  O      -62.997     -74.745     -15.418
  H      -64.105     -71.162      -9.192
  H      -62.989     -74.725     -16.393
  H      -58.758     -73.584      -6.892
  H      -61.503     -73.879     -12.711
  H      -62.747     -73.321      -9.214
  H      -61.424     -70.978     -10.132
  H      -62.403     -71.172     -12.337
  H      -65.019     -71.902     -10.913
  H      -65.623     -73.018     -12.931
  H      -56.399     -76.005      -9.823
  H      -57.346     -76.140     -11.284
  H      -65.056     -71.407     -13.430
  P      -63.484     -68.828     -12.846
  C      -61.983     -67.457     -11.284
  O      -62.144     -67.989     -12.584
  O      -64.667     -68.025     -13.277
  O      -63.038     -69.860     -13.987
  H      -63.351     -69.541     -14.854
  H      -62.602     -66.563     -11.174
  H      -60.935     -67.184     -11.144
  H      -62.263     -68.192     -10.524
  H      -64.976     -76.951     -13.020
  H      -63.599     -75.891     -12.836
  H      -63.817     -76.792     -14.317

 3  4  5  6  7  8  9  10  11  12  22  25  29  30  31  32 0
 6-311+G(2d,p)
 ****
 33  36  37 0
 6-311+G(2d,p)
 ****
 1  2  13  14  15  16  17  18  19  20  21  23  24  26 0
 3-21G
 ****
 27  28  34  35  38  39  40  41  42  43  44  45  46  47  48 0
 3-21G
 ****


