%nproc=1
%NoSave
%Mem=1900MB
#P OB98/GEN NMR

erre ene a

0 1
  C      310.797     254.060     782.144
  O      312.144     253.648     782.271
  H      310.573     254.761     782.952
  H      310.129     253.197     782.232
  H      310.636     254.563     781.191
  P      312.768     252.690     781.146
  C      313.604     253.035     778.740
  O      313.356     253.644     779.998
  C      314.793     253.695     778.048
  O      314.433     255.052     777.683
  C      316.053     253.758     778.917
  O      317.190     253.541     778.084
  C      316.057     255.191     779.422
  O      317.375     255.649     779.737
  C      315.416     255.939     778.254
  N      316.343     260.520     780.171
  C      317.213     259.530     779.766
  N      318.535     259.782     779.918
  N      316.833     258.386     779.262
  C      315.483     258.278     779.155
  C      314.516     259.184     779.519
  C      314.953     260.443     780.092
  O      314.231     261.349     780.474
  N      313.259     258.688     779.274
  C      313.461     257.487     778.771
  N      314.798     257.186     778.689
  O      311.860     251.609     780.648
  O      314.080     252.087     781.833
  H      317.651     255.184     780.559
  H      313.915     251.184     782.163
  H      316.690     261.380     780.559
  H      312.691     256.797     778.460
  H      316.143     256.201     777.477
  H      315.441     255.269     780.328
  H      318.909     260.645     780.285
  H      316.045     253.033     779.736
  H      319.195     259.080     779.606
  H      314.992     253.160     777.109
  H      312.706     253.152     778.122
  H      313.797     251.969     778.886
  P      317.929     252.113     778.146
  C      317.334     249.778     777.234
  O      317.307     251.187     776.992
  O      318.017     251.491     779.495
  O      319.395     252.453     777.568
  H      320.035     251.836     777.975
  H      316.896     249.265     776.403
  H      316.779     249.558     778.122
  H      318.347     249.457     777.358

 6  7  8  9  10  11  12  13  14  15  26  29  33  34 0
 6-311+G(2d,p)
 ****
 36  38  39  40  41 0
 6-311+G(2d,p)
 ****
 1  2  3  4  5  16  17  18  19  20  21  22  23  24  25 0
 3-21G
 ****
 27  28  30  31  32  35  37  42  43  44  45  46  47 0
 3-21G
 ****
 48  49 0
 3-21G
 ****


