%nproc=1
%NoSave
%Mem=1900MB
#P OB98/GEN NMR

erre ene a

0 1
  C      114.811      86.968     424.396
  O      114.263      85.768     424.959
  P      113.078      85.031     424.172
  C      113.374      82.740     425.367
  O      112.519      83.832     425.084
  C      112.604      81.630     426.102
  O      112.237      82.035     427.438
  C      111.301      81.248     425.418
  O      111.512      80.330     424.346
  C      110.568      80.553     426.568
  O      111.053      79.203     426.710
  C      110.993      81.399     427.780
  N      107.515      82.936     431.229
  C      108.288      81.833     431.169
  N      109.168      81.488     430.206
  C      109.228      82.429     429.252
  C      108.505      83.608     429.177
  C      107.604      83.854     430.240
  N      106.818      84.985     430.304
  N      108.831      84.323     428.042
  C      109.746      83.583     427.440
  N      110.013      82.433     428.123
  O      113.850      84.265     422.992
  O      112.040      85.965     423.629
  H      112.029      79.267     426.819
  H      113.290      84.245     422.188
  H      108.186      81.129     431.984
  H      110.240      83.859     426.513
  H      111.148      80.789     428.674
  H      109.492      80.480     426.397
  H      110.739      82.142     425.107
  H      113.266      80.745     426.171
  H      114.225      83.062     425.978
  H      106.219      85.110     431.108
  H      106.906      85.677     429.570
  H      113.800      82.361     424.425
  P      111.150      80.830     422.875
  C      113.043      79.316     421.951
  O      111.678      79.703     421.877
  O      112.150      82.057     422.646
  O      109.721      81.245     422.707
  H      111.743      82.718     422.051
  H      113.164      78.350     421.442
  H      113.387      79.231     422.982
  H      113.652      80.074     421.421
  H      115.587      87.339     425.033
  H      114.040      87.705     424.308
  H      115.214      86.756     423.428

 3  4  5  6  7  8  9  10  11  12  22  25  29  30  31  32 0
 6-311+G(2d,p)
 ****
 33  36  37 0
 6-311+G(2d,p)
 ****
 1  2  13  14  15  16  17  18  19  20  21  23  24  26 0
 3-21G
 ****
 27  28  34  35  38  39  40  41  42  43  44  45  46  47  48 0
 3-21G
 ****


