%nproc=1
%NoSave
%Mem=1900MB
#P OB98/GEN NMR

erre ene a

0 1
  C     -413.728    -788.502    -969.650
  O     -414.832    -787.645    -969.772
  P     -414.548    -786.064    -969.726
  C     -415.223    -785.124    -972.055
  O     -415.618    -785.400    -970.733
  C     -416.432    -784.673    -972.894
  O     -417.317    -785.776    -973.165
  C     -417.276    -783.607    -972.209
  O     -416.645    -782.322    -972.314
  C     -418.588    -783.722    -973.021
  O     -418.534    -782.907    -974.197
  C     -418.633    -785.224    -973.367
  N     -419.650    -785.957    -972.648
  C     -420.972    -785.821    -973.099
  O     -421.215    -785.107    -974.080
  N     -421.975    -786.477    -972.442
  C     -421.690    -787.178    -971.379
  N     -422.713    -787.820    -970.752
  C     -420.320    -787.355    -970.836
  C     -419.343    -786.700    -971.493
  O     -413.165    -785.906    -970.524
  O     -414.499    -785.471    -968.362
  H     -419.349    -783.167    -974.716
  H     -412.667    -785.121    -970.239
  H     -420.148    -787.949    -969.932
  H     -418.335    -786.750    -971.158
  H     -418.833    -785.365    -974.457
  H     -419.444    -783.389    -972.432
  H     -417.466    -783.867    -971.167
  H     -416.054    -784.296    -973.894
  H     -423.684    -787.700    -971.136
  H     -414.831    -786.049    -972.530
  H     -422.622    -788.409    -969.941
  H     -414.448    -784.382    -972.073
  P     -416.076    -781.711    -970.961
  C     -413.674    -782.529    -970.661
  O     -414.506    -781.515    -971.215
  O     -416.117    -782.955    -969.957
  O     -416.796    -780.505    -970.415
  H     -415.891    -782.653    -969.049
  H     -412.657    -782.398    -971.055
  H     -414.005    -783.519    -970.963
  H     -413.658    -782.473    -969.572
  H     -414.059    -789.519    -969.697
  H     -413.243    -788.328    -968.712
  H     -413.040    -788.314    -970.448

 3  4  5  6  7  8  9  10  11  12  13  21  23  27  28  29  30  32 0
 6-311+G(2d,p)
 ****
 34  35 0
 6-311+G(2d,p)
 ****
 1  2  14  15  16  17  18  19  20  22  24  25  26 0
 3-21G
 ****
 31  33  36  37  38  39  40  41  42  43  44  45  46 0
 3-21G
 ****


