%nproc=1
%NoSave
%Mem=1900MB
#P OB98/GEN NMR

erre ene a

0 1
  C      197.702    -104.924    -528.990
  O      197.961    -103.601    -528.569
  H      197.671    -104.944    -530.083
  H      196.734    -105.252    -528.606
  H      198.489    -105.601    -528.647
  P      198.250    -103.387    -527.005
  C      196.811    -103.403    -524.845
  O      196.856    -103.623    -526.247
  C      195.615    -104.128    -524.234
  O      195.723    -105.553    -524.458
  C      195.473    -103.944    -522.729
  O      194.824    -102.722    -522.404
  C      194.599    -105.139    -522.382
  O      193.233    -104.866    -522.753
  C      195.187    -106.229    -523.289
  N      196.300    -109.513    -519.589
  C      195.098    -108.911    -519.910
  N      194.044    -109.222    -519.127
  N      194.943    -108.076    -520.905
  C      196.086    -107.850    -521.593
  C      197.339    -108.385    -521.375
  C      197.492    -109.313    -520.278
  O      198.530    -109.892    -519.965
  N      198.248    -107.927    -522.289
  C      197.557    -107.099    -523.047
  N      196.242    -107.013    -522.664
  O      198.474    -101.805    -526.881
  O      199.415    -104.142    -526.459
  H      192.737    -105.694    -522.624
  H      199.156    -101.635    -526.204
  H      196.369    -110.139    -518.805
  H      197.961    -106.541    -523.883
  H      194.427    -106.937    -523.637
  H      194.604    -105.368    -521.315
  H      194.105    -109.819    -518.318
  H      196.440    -104.037    -522.215
  H      193.146    -108.820    -519.364
  H      194.712    -103.783    -524.753
  H      196.719    -102.329    -524.651
  H      197.742    -103.767    -524.398
  P      195.127    -102.079    -520.962
  C      195.111    -103.142    -518.594
  O      194.532    -103.115    -519.891
  O      194.100    -100.850    -520.895
  O      196.538    -101.647    -520.749
  H      194.425    -100.181    -520.261
  H      194.613    -103.877    -517.996
  H      195.007    -102.180    -518.137
  H      196.149    -103.389    -518.672

 6  7  8  9  10  11  12  13  14  15  26  29  33  34 0
 6-311+G(2d,p)
 ****
 36  38  39  40  41 0
 6-311+G(2d,p)
 ****
 1  2  3  4  5  16  17  18  19  20  21  22  23  24  25 0
 3-21G
 ****
 27  28  30  31  32  35  37  42  43  44  45  46  47 0
 3-21G
 ****
 48  49 0
 3-21G
 ****


