%nproc=1
%NoSave
%Mem=1900MB
#P OB98/GEN NMR

erre ene a

0 1
  C     -211.531     481.548    -571.917
  O     -212.226     481.403    -573.147
  P     -213.332     480.249    -573.235
  C     -215.223     481.977    -573.760
  O     -214.521     480.802    -574.157
  C     -216.028     482.526    -574.940
  O     -215.149     483.111    -575.920
  C     -216.831     481.463    -575.677
  O     -218.018     481.133    -574.984
  C     -217.076     482.141    -577.016
  O     -218.204     483.024    -576.946
  C     -215.773     482.940    -577.217
  N     -214.867     482.318    -578.170
  C     -215.372     482.127    -579.458
  O     -216.523     482.449    -579.781
  N     -214.537     481.525    -580.354
  C     -213.286     481.049    -580.086
  O     -212.598     480.471    -580.921
  C     -212.808     481.250    -578.706
  C     -213.613     481.845    -577.829
  O     -213.984     480.214    -571.773
  O     -212.807     478.912    -573.647
  H     -217.921     483.793    -576.420
  H     -214.213     479.298    -571.533
  H     -214.877     481.405    -581.296
  H     -211.819     480.879    -578.460
  H     -213.289     481.993    -576.802
  H     -216.007     483.958    -577.568
  H     -217.283     481.419    -577.817
  H     -216.198     480.568    -575.838
  H     -216.693     483.311    -574.557
  H     -214.505     482.722    -573.420
  H     -215.880     481.726    -572.920
  P     -218.657     479.681    -575.270
  C     -218.009     478.540    -573.019
  O     -219.024     479.091    -573.830
  O     -217.360     478.871    -575.743
  O     -219.762     479.723    -576.273
  H     -216.552     479.186    -575.303
  H     -217.061     479.072    -573.137
  H     -217.862     477.487    -573.275
  H     -218.320     478.597    -571.970
  H     -210.827     482.350    -571.997
  H     -211.013     480.640    -571.691
  H     -212.230     481.764    -571.136

 3  4  5  6  7  8  9  10  11  12  13  23  28  29  30  31  32 0
 6-311+G(2d,p)
 ****
 33  34 0
 6-311+G(2d,p)
 ****
 1  2  14  15  16  17  18  19  20  21  22  24  25  26 0
 3-21G
 ****
 27  35  36  37  38  39  40  41  42  43  44  45 0
 3-21G
 ****


