%nproc=1
%NoSave
%Mem=1900MB
#P OB98/GEN NMR

erre ene a

0 1
  C       15.402      51.922    -240.232
  O       16.251      52.550    -241.196
  P       15.745      53.929    -241.839
  C       17.584      55.335    -240.647
  O       16.195      55.132    -240.883
  C       17.784      56.406    -239.573
  O       17.479      55.894    -238.262
  C       19.217      56.901    -239.483
  O       19.495      57.815    -240.526
  C       19.251      57.525    -238.093
  O       18.885      58.915    -238.125
  C       18.200      56.700    -237.315
  N       18.792      55.883    -236.268
  C       18.958      56.505    -235.027
  O       18.633      57.684    -234.875
  N       19.513      55.784    -234.001
  C       19.891      54.560    -234.204
  N       20.438      53.898    -233.150
  C       19.757      53.876    -235.506
  C       19.207      54.590    -236.485
  O       14.159      53.868    -241.636
  O       16.109      54.094    -243.279
  H       19.041      59.248    -237.217
  H       13.706      54.320    -242.370
  H       20.094      52.858    -235.629
  H       19.071      54.168    -237.476
  H       17.465      57.365    -236.846
  H       20.252      57.473    -237.656
  H       19.911      56.052    -239.524
  H       17.110      57.246    -239.790
  H       20.516      54.398    -232.273
  H       18.082      55.634    -241.570
  H       20.771      52.946    -233.198
  H       18.031      54.383    -240.341
  P       20.246      57.257    -241.825
  C       18.273      57.882    -243.343
  O       19.074      56.833    -242.834
  O       20.776      55.831    -241.320
  O       21.344      58.092    -242.392
  H       21.341      55.424    -242.000
  H       17.664      57.491    -244.162
  H       18.896      58.693    -243.725
  H       17.609      58.256    -242.560
  H       15.860      51.018    -239.889
  H       14.458      51.695    -240.682
  H       15.253      52.583    -239.404

 3  4  5  6  7  8  9  10  11  12  13  21  23  27  28  29  30  32 0
 6-311+G(2d,p)
 ****
 34  35 0
 6-311+G(2d,p)
 ****
 1  2  14  15  16  17  18  19  20  22  24  25  26 0
 3-21G
 ****
 31  33  36  37  38  39  40  41  42  43  44  45  46 0
 3-21G
 ****


