%nproc=1
%NoSave
%Mem=1900MB
#P OB98/GEN NMR

erre ene a

0 1
  C      247.091     -83.860    1441.782
  O      247.954     -83.391    1440.721
  P      249.107     -82.318    1440.948
  C      250.710     -83.822    1439.584
  O      250.538     -83.025    1440.746
  C      252.207     -83.993    1439.224
  O      252.718     -82.788    1438.615
  C      253.112     -84.253    1440.419
  O      252.988     -85.605    1440.863
  C      254.471     -83.910    1439.825
  O      255.015     -84.995    1439.061
  C      254.125     -82.708    1438.913
  N      254.478     -81.434    1439.506
  C      254.909     -80.423    1438.634
  O      255.045     -80.657    1437.437
  N      255.208     -79.179    1439.156
  C      255.148     -78.996    1440.430
  N      255.447     -77.741    1440.890
  C      254.783     -80.055    1441.399
  C      254.441     -81.230    1440.880
  O      248.988     -81.542    1442.236
  O      249.021     -81.328    1439.689
  H      254.335     -85.205    1438.389
  H      249.310     -80.442    1439.974
  H      254.784     -79.852    1442.466
  H      254.161     -82.059    1441.506
  H      254.643     -82.811    1437.948
  H      255.224     -83.659    1440.604
  H      252.873     -83.557    1441.251
  H      252.283     -84.799    1438.488
  H      255.693     -77.049    1440.196
  H      250.204     -83.326    1438.755
  H      255.429     -77.480    1441.863
  H      250.241     -84.788    1439.743
  P      252.194     -85.933    1442.220
  C      250.016     -86.598    1441.016
  O      250.631     -85.697    1441.933
  O      252.724     -85.240    1443.455
  O      252.305     -87.525    1442.370
  H      252.328     -87.747    1443.319
  H      248.946     -86.619    1441.211
  H      250.437     -87.601    1441.128
  H      250.192     -86.232    1440.000
  H      246.398     -84.574    1441.389
  H      246.554     -83.033    1442.197
  H      247.683     -84.320    1442.546

 3  4  5  6  7  8  9  10  11  12  13  23  27  28  29  30  32 0
 6-311+G(2d,p)
 ****
 34  35 0
 6-311+G(2d,p)
 ****
 1  2  14  15  16  17  18  19  20  21  22  24  25  26 0
 3-21G
 ****
 31  33  36  37  38  39  40  41  42  43  44  45  46 0
 3-21G
 ****


