%nproc=1
%NoSave
%Mem=1900MB
#P OB98/GEN NMR

erre ene a

0 1
  C     -253.559      36.710     111.098
  O     -254.307      35.818     110.298
  H     -254.255      37.315     111.685
  H     -252.969      37.375     110.465
  H     -252.906      36.164     111.784
  P     -253.531      34.711     109.438
  C     -253.530      35.526     106.989
  O     -252.817      35.472     108.216
  C     -252.972      36.630     106.086
  O     -251.562      36.372     105.855
  C     -253.661      36.718     104.722
  O     -253.764      38.088     104.335
  C     -252.704      35.993     103.797
  O     -252.819      36.433     102.445
  C     -251.352      36.311     104.431
  N     -248.644      34.278     100.682
  C     -249.504      35.358     100.675
  N     -249.687      35.979      99.490
  N     -250.134      35.789     101.736
  C     -249.839      35.086     102.856
  C     -249.007      34.000     102.992
  C     -248.332      33.520     101.806
  O     -247.572      32.559     101.747
  N     -248.984      33.550     104.289
  C     -249.802      34.360     104.932
  N     -250.355      35.303     104.106
  O     -254.357      33.530     109.038
  O     -252.302      34.280     110.364
  H     -252.174      37.164     102.327
  H     -252.455      33.404     110.763
  H     -248.194      33.981      99.834
  H     -250.030      34.309     105.989
  H     -250.950      37.275     104.097
  H     -252.908      34.915     103.824
  H     -249.215      35.715      98.638
  H     -254.652      36.265     104.730
  H     -250.289      36.794      99.464
  H     -253.037      37.585     106.622
  H     -254.581      35.731     107.212
  H     -253.457      34.556     106.486
  P     -254.934      38.989     104.962
  C     -256.819      39.172     103.226
  O     -256.342      38.487     104.376
  O     -254.713      40.463     104.895
  O     -254.991      38.487     106.485
  H     -255.217      39.246     107.059
  H     -257.758      38.755     102.926
  H     -256.112      39.067     102.430
  H     -256.946      40.209     103.456

 6  7  8  9  10  11  12  13  14  15  26  29  33  34 0
 6-311+G(2d,p)
 ****
 36  38  39  40  41 0
 6-311+G(2d,p)
 ****
 1  2  3  4  5  16  17  18  19  20  21  22  23  24  25 0
 3-21G
 ****
 27  28  30  31  32  35  37  42  43  44  45  46  47 0
 3-21G
 ****
 48  49 0
 3-21G
 ****


