%nproc=1
%NoSave
%Mem=1900MB
#P OB98/GEN NMR

erre ene a

0 1
  C     -456.654    -282.155     659.792
  O     -456.778    -281.179     660.811
  H     -456.520    -283.139     660.266
  H     -455.792    -281.943     659.160
  H     -457.562    -282.177     659.186
  P     -456.876    -279.647     660.321
  C     -454.391    -279.926     659.551
  O     -455.346    -279.161     660.297
  C     -453.004    -279.334     659.736
  O     -452.903    -278.054     659.068
  C     -452.610    -279.056     661.192
  O     -452.230    -280.239     661.896
  C     -451.433    -278.114     660.967
  O     -450.286    -278.872     660.523
  C     -451.988    -277.216     659.846
  N     -452.667    -276.026     660.357
  C     -452.136    -274.785     660.007
  O     -451.129    -274.713     659.297
  N     -452.725    -273.647     660.484
  C     -453.793    -273.732     661.235
  N     -454.331    -272.562     661.679
  C     -454.410    -275.019     661.620
  C     -453.805    -276.110     661.138
  O     -457.466    -278.883     661.607
  O     -457.638    -279.413     659.065
  H     -450.612    -279.511     659.863
  H     -457.431    -277.911     661.465
  H     -455.285    -275.036     662.243
  H     -454.207    -277.099     661.375
  H     -451.178    -276.892     659.164
  H     -451.133    -277.594     661.870
  H     -453.401    -278.534     661.723
  H     -452.283    -280.019     659.241
  H     -453.862    -271.699     661.447
  H     -454.683    -279.887     658.493
  H     -455.064    -272.527     662.385
  H     -454.391    -280.967     659.892
  P     -453.105    -280.643     663.176
  C     -451.754    -279.069     664.762
  O     -452.176    -280.397     664.466
  O     -453.188    -282.233     663.072
  O     -454.456    -280.011     663.237
  H     -454.050    -282.558     663.404
  H     -451.148    -279.076     665.644
  H     -452.612    -278.450     664.923
  H     -451.186    -278.684     663.941

 6  7  8  9  10  11  12  13  14  15  16  26  30  31  32  33  35 0
 6-311+G(2d,p)
 ****
 37  38 0
 6-311+G(2d,p)
 ****
 1  2  3  4  5  17  18  19  20  21  22  23  24  25 0
 3-21G
 ****
 27  28  29  34  36  39  40  41  42  43  44  45  46 0
 3-21G
 ****


