%nproc=1
%NoSave
%Mem=1900MB
#P OB98/GEN NMR

erre ene a

0 1
  C     -101.983    -369.149       4.990
  O     -103.066    -369.560       5.806
  P     -104.009    -368.478       6.511
  C     -104.301    -369.416       8.878
  O     -104.904    -369.254       7.600
  C     -105.193    -370.237       9.813
  O     -106.462    -369.548       9.982
  C     -105.508    -371.658       9.316
  O     -105.604    -372.486      10.481
  C     -106.886    -371.498       8.693
  O     -107.591    -372.726       8.584
  C     -107.503    -370.490       9.658
  N     -112.369    -369.070      10.367
  C     -111.529    -369.811      11.121
  N     -110.253    -370.168      10.853
  C     -109.867    -369.671       9.668
  C     -110.616    -368.926       8.773
  C     -111.927    -368.605       9.175
  N     -112.784    -367.822       8.434
  N     -109.882    -368.652       7.635
  C     -108.711    -369.221       7.838
  N     -108.635    -369.798       9.081
  O     -104.784    -367.607       5.581
  O     -103.011    -367.615       7.415
  H     -108.518    -372.534       8.346
  H     -102.867    -366.739       7.005
  H     -111.928    -370.163      12.070
  H     -107.896    -369.253       7.127
  H     -107.838    -370.963      10.589
  H     -106.784    -371.072       7.687
  H     -104.771    -372.057       8.616
  H     -104.714    -370.270      10.796
  H     -104.148    -368.423       9.307
  H     -113.650    -367.546       8.871
  H     -112.399    -367.248       7.684
  H     -103.323    -369.896       8.770
  P     -104.744    -373.838      10.569
  C     -106.827    -375.322      10.746
  O     -105.635    -374.892      11.381
  O     -103.341    -373.673      11.052
  O     -104.788    -374.410       9.068
  H     -104.080    -375.070       8.949
  H     -107.607    -374.560      10.889
  H     -107.156    -376.261      11.202
  H     -106.672    -375.479       9.676
  H     -101.475    -370.011       4.611
  H     -101.303    -368.560       5.570
  H     -102.353    -368.566       4.173

 3  4  5  6  7  8  9  10  11  12  22  25  29  30  31  32 0
 6-311+G(2d,p)
 ****
 33  36  37 0
 6-311+G(2d,p)
 ****
 1  2  13  14  15  16  17  18  19  20  21  23  24  26 0
 3-21G
 ****
 27  28  34  35  38  39  40  41  42  43  44  45  46  47  48 0
 3-21G
 ****


