%nproc=1
%NoSave
%Mem=1900MB
#P OB98/GEN NMR

erre ene a

0 1
  C     -409.799    -187.734     302.931
  O     -409.751    -187.249     301.600
  P     -408.382    -186.661     301.013
  C     -408.972    -184.127     301.101
  O     -408.738    -185.268     300.304
  C     -409.007    -182.851     300.248
  O     -407.678    -182.637     299.715
  C     -409.937    -182.916     299.041
  O     -410.197    -181.583     298.595
  C     -409.073    -183.631     298.021
  O     -409.526    -183.422     296.687
  C     -407.660    -183.084     298.340
  N     -406.626    -184.118     298.151
  C     -405.746    -183.944     297.088
  O     -405.754    -182.942     296.370
  N     -404.910    -184.992     296.821
  C     -404.912    -186.188     297.480
  O     -404.392    -187.208     297.045
  C     -405.685    -186.224     298.730
  C     -406.518    -185.212     298.994
  O     -408.075    -187.646     299.790
  O     -407.252    -186.609     301.980
  H     -409.389    -182.464     296.490
  H     -407.448    -188.340     300.063
  H     -404.372    -184.922     295.966
  H     -405.599    -187.098     299.362
  H     -407.139    -185.236     299.882
  H     -407.409    -182.233     297.694
  H     -409.112    -184.712     298.219
  H     -410.876    -183.442     299.225
  H     -409.259    -181.995     300.883
  H     -408.190    -184.058     301.868
  H     -409.923    -184.226     301.635
  P     -411.692    -181.013     298.745
  C     -411.680    -180.695     296.198
  O     -411.961    -180.109     297.455
  O     -412.022    -180.386     300.058
  O     -412.597    -182.309     298.465
  H     -413.496    -182.165     298.811
  H     -412.342    -180.256     295.449
  H     -411.832    -181.779     296.219
  H     -410.642    -180.478     295.927
  H     -410.786    -188.085     303.147
  H     -409.545    -186.945     303.607
  H     -409.102    -188.538     303.043

 3  4  5  6  7  8  9  10  11  12  13  23  28  29  30  31  32 0
 6-311+G(2d,p)
 ****
 33  34 0
 6-311+G(2d,p)
 ****
 1  2  14  15  16  17  18  19  20  21  22  24  25  26  27 0
 3-21G
 ****
 35  36  37  38  39  40  41  42  43  44  45 0
 3-21G
 ****


