%nproc=1
%NoSave
%Mem=1900MB
#P OB98/GEN NMR

erre ene a

0 1
  C       74.918     -10.816     184.589
  O       74.773      -9.413     184.484
  H       74.506     -11.278     183.687
  H       74.366     -11.184     185.457
  H       75.974     -11.085     184.673
  P       75.482      -8.529     185.624
  C       73.428      -8.203     187.224
  O       74.669      -8.837     186.972
  C       73.173      -8.105     188.728
  O       73.193      -9.441     189.292
  C       74.209      -7.267     189.479
  O       73.546      -6.544     190.517
  C       75.139      -8.306     190.081
  O       75.830      -7.804     191.224
  C       74.169      -9.466     190.352
  N       74.852     -10.758     190.417
  C       75.083     -11.282     191.692
  O       74.739     -10.655     192.693
  N       75.739     -12.482     191.806
  C       76.188     -13.073     190.743
  N       76.849     -14.250     190.925
  C       76.015     -12.529     189.382
  C       75.336     -11.387     189.293
  O       75.016      -7.051     185.225
  O       76.960      -8.712     185.710
  H       76.651      -7.363     190.911
  H       74.086      -6.998     184.947
  H       76.421     -13.052     188.528
  H       75.154     -10.921     188.330
  H       73.637      -9.311     191.299
  H       75.891      -8.609     189.341
  H       74.750      -6.571     188.837
  H       72.161      -7.714     188.885
  H       76.963     -14.579     191.876
  H       72.613      -8.761     186.752
  H       77.285     -14.768     190.176
  H       73.460      -7.203     186.779
  P       73.474      -4.946     190.435
  C       75.568      -4.499     191.872
  O       74.954      -4.348     190.600
  O       72.431      -4.301     191.285
  O       73.173      -4.683     188.877
  H       72.547      -3.934     188.815
  H       76.544      -4.061     191.851
  H       75.648      -5.540     192.108
  H       74.974      -4.010     192.615

 6  7  8  9  10  11  12  13  14  15  16  26  30  31  32  33  35 0
 6-311+G(2d,p)
 ****
 37  38 0
 6-311+G(2d,p)
 ****
 1  2  3  4  5  17  18  19  20  21  22  23  24  25 0
 3-21G
 ****
 27  28  29  34  36  39  40  41  42  43  44  45  46 0
 3-21G
 ****


