%nproc=1
%NoSave
%Mem=1900MB
#P OB98/GEN NMR

erre ene a

0 1
  C      239.006    -410.754     214.345
  O      238.229    -409.549     214.374
  P      236.904    -409.536     213.461
  C      237.480    -407.183     212.524
  O      236.513    -408.001     213.170
  C      237.260    -405.697     212.830
  O      236.237    -405.173     211.946
  C      236.814    -405.397     214.267
  O      237.432    -404.173     214.688
  C      235.325    -405.128     214.121
  O      234.813    -404.343     215.194
  C      235.300    -404.444     212.757
  N      231.750    -401.562     210.589
  C      233.035    -401.229     210.982
  N      233.418    -399.949     210.793
  N      233.871    -402.088     211.518
  C      233.363    -403.342     211.615
  C      232.114    -403.789     211.251
  C      231.189    -402.824     210.704
  O      230.019    -403.036     210.382
  N      231.969    -405.131     211.515
  C      233.124    -405.491     212.035
  N      233.998    -404.441     212.128
  O      235.765    -410.043     214.471
  O      236.993    -410.414     212.257
  H      233.933    -404.020     214.918
  H      235.318    -410.829     214.097
  H      231.145    -400.854     210.200
  H      233.374    -406.484     212.390
  H      235.648    -403.405     212.829
  H      234.787    -406.085     214.109
  H      232.851    -399.259     210.327
  H      237.037    -406.193     214.987
  H      234.374    -399.705     211.035
  H      238.194    -405.163     212.601
  H      237.416    -407.340     211.442
  H      238.478    -407.494     212.852
  P      238.962    -404.272     215.170
  C      238.411    -402.857     217.284
  O      239.206    -403.004     216.125
  O      239.787    -403.919     213.849
  O      239.338    -405.602     215.743
  H      240.669    -404.341     213.876
  H      237.829    -403.751     217.509
  H      237.726    -402.014     217.133
  H      239.065    -402.638     218.132
  H      239.856    -410.646     214.986
  H      239.335    -410.942     213.344
  H      238.406    -411.573     214.683

 3  4  5  6  7  8  9  10  11  12  23  26  30  31  33  0
 6-311+G(2d,p)
 ****
 35  36  37  38 0
 6-311+G(2d,p)
 ****
 1  2  13  14  15  16  17  18  19  20  21  22  24  25  27  28  29 0
 3-21G
 ****
 32  34  39  40  41  42  43  44  45  46  47  48  49 0
 3-21G
 ****


