%nproc=1
%NoSave
%Mem=1900MB
#P OB98/GEN NMR

erre ene a

0 1
  C      696.094    -919.831     477.401
  O      697.206    -920.077     478.239
  H      696.322    -918.972     476.760
  H      695.213    -919.587     478.008
  H      695.880    -920.692     476.774
  P      697.116    -921.288     479.284
  C      699.211    -922.591     478.490
  O      697.784    -922.523     478.513
  C      699.724    -923.308     479.730
  O      699.281    -924.684     479.771
  C      701.254    -923.397     479.844
  O      701.880    -922.163     480.176
  C      701.382    -924.435     480.934
  O      701.088    -923.824     482.208
  C      700.280    -925.440     480.522
  N      700.803    -926.553     479.718
  C      701.008    -927.764     480.388
  O      700.765    -927.865     481.575
  N      701.526    -928.824     479.671
  C      701.833    -928.675     478.408
  N      702.330    -929.760     477.775
  C      701.650    -927.411     477.690
  C      701.131    -926.400     478.399
  O      695.778    -921.551     479.869
  O      698.243    -920.952     480.381
  H      701.244    -924.496     482.896
  H      698.216    -921.666     481.069
  H      701.949    -927.331     476.640
  H      700.966    -925.432     477.929
  H      699.779    -925.845     481.406
  H      702.386    -924.866     481.008
  H      701.690    -923.806     478.901
  H      699.292    -922.802     480.612
  H      702.460    -930.615     478.316
  H      699.599    -921.576     478.428
  H      702.672    -929.710     476.816
  H      699.540    -923.155     477.602
  P      702.847    -921.490     479.069
  C      701.122    -919.589     478.591
  O      701.861    -920.676     478.074
  O      703.289    -922.766     478.188
  O      703.994    -920.722     479.602
  H      704.174    -923.063     478.463
  H      700.524    -919.162     477.813
  H      701.795    -918.849     478.971
  H      700.487    -919.933     479.381

 6  7  8  9  10  11  12  13  14  15  16  26  30  31  32  33  35 0
 6-311+G(2d,p)
 ****
 37  38 0
 6-311+G(2d,p)
 ****
 1  2  3  4  5  17  18  19  20  21  22  23  24  25 0
 3-21G
 ****
 27  28  29  34  36  39  40  41  42  43  44  45  46 0
 3-21G
 ****


