%nproc=1
%NoSave
%Mem=1900MB
#P OB98/GEN NMR

erre ene a

0 1
  C      -77.480     269.880      32.695
  O      -76.652     268.783      33.024
  H      -76.876     270.635      32.187
  H      -77.908     270.321      33.600
  H      -78.280     269.557      32.023
  P      -77.341     267.581      33.832
  C      -77.407     268.969      36.003
  O      -78.170     268.307      35.001
  C      -78.297     269.348      37.187
  O      -77.467     269.445      38.374
  C      -79.012     270.692      37.012
  O      -80.307     270.614      37.608
  C      -78.149     271.650      37.817
  O      -78.864     272.810      38.228
  C      -77.683     270.743      38.955
  N      -75.844     274.287      42.111
  C      -77.105     273.911      41.811
  N      -77.507     272.936      40.971
  C      -76.445     272.282      40.461
  C      -75.106     272.549      40.673
  C      -74.814     273.619      41.540
  N      -73.534     274.034      41.826
  N      -74.319     271.689      39.934
  C      -75.170     270.907      39.293
  N      -76.467     271.244      39.567
  O      -76.421     266.497      34.285
  O      -78.496     267.123      32.825
  H      -79.667     272.524      38.713
  H      -78.987     267.889      32.471
  H      -77.896     274.473      42.300
  H      -74.899     270.105      38.615
  H      -78.434     270.648      39.752
  H      -77.296     271.979      37.212
  H      -79.100     270.998      35.970
  H      -79.012     268.536      37.365
  H      -76.945     269.873      35.589
  H      -73.417     274.808      42.460
  H      -72.751     273.546      41.416
  H      -76.611     268.287      36.325
  P      -81.565     270.225      36.694
  C      -82.033     272.611      35.840
  O      -81.671     271.283      35.489
  O      -82.840     269.968      37.422
  O      -81.058     268.901      35.942
  H      -81.786     268.251      35.915
  H      -82.070     273.216      34.958
  H      -81.307     273.011      36.517
  H      -82.994     272.606      36.310

 6  7  8  9  10  11  12  13  14  15  25  28  32  33  34  35 0
 6-311+G(2d,p)
 ****
 36  39  40 0
 6-311+G(2d,p)
 ****
 1  2  3  4  5  16  17  18  19  20  21  22  23  24 0
 3-21G
 ****
 26  27  29  30  31  37  38  41  42  43  44  45  46  47 0
 3-21G
 ****
 48 0
 3-21G
 ****


