%nproc=1
%NoSave
%Mem=1900MB
#P OB98/GEN NMR

erre ene a

0 1
  C      697.639    -762.039    -171.135
  O      697.445    -760.634    -170.958
  P      695.928    -760.103    -170.924
  C      695.875    -758.771    -168.661
  O      695.917    -758.744    -170.077
  C      697.294    -758.867    -168.064
  O      698.117    -757.820    -168.651
  C      697.385    -758.669    -166.563
  O      698.633    -759.201    -166.097
  C      697.411    -757.154    -166.448
  O      697.900    -756.728    -165.188
  C      698.259    -756.754    -167.671
  N      697.858    -755.467    -168.269
  C      698.313    -754.286    -167.682
  O      699.030    -754.255    -166.662
  N      697.880    -753.122    -168.246
  C      697.100    -753.004    -169.358
  O      696.677    -751.939    -169.759
  C      696.768    -754.267    -170.024
  C      697.152    -755.413    -169.465
  O      695.176    -761.154    -169.991
  O      695.304    -759.996    -172.271
  H      697.890    -755.746    -165.201
  H      694.633    -761.748    -170.531
  H      698.153    -752.263    -167.778
  H      696.207    -754.223    -170.946
  H      696.901    -756.369    -169.935
  H      699.326    -756.671    -167.406
  H      696.394    -756.766    -166.548
  H      696.565    -759.107    -165.990
  H      697.733    -759.830    -168.359
  H      695.270    -759.604    -168.327
  H      695.395    -757.864    -168.283
  P      698.608    -760.491    -165.127
  C      700.375    -761.939    -166.292
  O      700.072    -761.112    -165.182
  O      697.472    -761.434    -165.356
  O      698.550    -759.821    -163.668
  H      698.228    -760.492    -163.019
  H      701.443    -761.882    -166.492
  H      699.828    -761.626    -167.189
  H      700.109    -762.969    -166.057
  H      698.687    -762.257    -171.139
  H      697.208    -762.344    -172.065
  H      697.168    -762.568    -170.333

 3  4  5  6  7  8  9  10  11  12  13  23  28  29  30  31  32 0
 6-311+G(2d,p)
 ****
 33  34 0
 6-311+G(2d,p)
 ****
 1  2  14  15  16  17  18  19  20  21  22  24  25  26  27 0
 3-21G
 ****
 35  36  37  38  39  40  41  42  43  44  45 0
 3-21G
 ****


