%nproc=1
%NoSave
%Mem=1900MB
#P OB98/GEN NMR

erre ene a

0 1
  C       28.963     393.696    -314.668
  O       28.252     393.425    -315.860
  P       29.036     393.318    -317.251
  C       28.502     395.242    -318.872
  O       29.306     394.809    -317.776
  C       27.176     395.807    -318.371
  O       27.402     396.711    -317.266
  C       26.409     396.615    -319.412
  O       25.775     395.760    -320.345
  C       25.459     397.413    -318.528
  O       24.320     396.618    -318.161
  C       26.335     397.686    -317.294
  N       25.899     402.368    -315.304
  C       25.097     401.282    -315.236
  N       25.264     400.078    -315.830
  C       26.383     400.069    -316.567
  C       27.278     401.112    -316.764
  C       27.013     402.305    -316.067
  N       27.855     403.397    -316.079
  N       28.293     400.727    -317.627
  C       28.004     399.481    -317.950
  N       26.898     399.027    -317.286
  O       28.436     392.391    -318.254
  O       30.500     392.818    -316.826
  H       23.903     396.314    -318.985
  H       30.683     391.959    -317.250
  H       24.210     401.389    -314.617
  H       28.574     398.868    -318.640
  H       25.774     397.567    -316.360
  H       25.087     398.317    -319.018
  H       27.095     397.305    -319.923
  H       26.563     394.972    -318.002
  H       28.316     394.377    -319.521
  H       27.643     404.137    -315.431
  H       28.819     403.262    -316.382
  H       29.048     395.998    -319.442
  P       25.382     396.317    -321.795
  C       22.971     397.136    -322.107
  O       24.250     397.431    -321.576
  O       25.072     395.279    -322.821
  O       26.660     397.187    -322.219
  H       26.772     397.147    -323.188
  H       22.978     397.305    -323.190
  H       22.237     397.801    -321.646
  H       22.692     396.100    -321.904
  H       28.280     393.731    -313.845
  H       29.462     394.638    -314.757
  H       29.685     392.924    -314.500

 3  4  5  6  7  8  9  10  11  12  22  25  29  30  31  32 0
 6-311+G(2d,p)
 ****
 33  36  37 0
 6-311+G(2d,p)
 ****
 1  2  13  14  15  16  17  18  19  20  21  23  24  26 0
 3-21G
 ****
 27  28  34  35  38  39  40  41  42  43  44  45  46  47  48 0
 3-21G
 ****


