%nproc=1
%NoSave
%Mem=1900MB
#P OB98/GEN NMR

erre ene a

0 1
  C      413.387    -355.953    -683.355
  O      414.485    -356.617    -682.770
  H      412.560    -356.661    -683.455
  H      413.654    -355.572    -684.346
  H      413.067    -355.123    -682.715
  P      415.845    -355.772    -682.633
  C      416.208    -356.321    -680.106
  O      415.872    -355.343    -681.081
  C      415.762    -355.850    -678.724
  O      414.361    -355.512    -678.722
  C      415.927    -356.895    -677.615
  O      417.265    -357.033    -677.161
  C      415.029    -356.287    -676.550
  O      415.695    -355.157    -675.946
  C      413.825    -355.834    -677.408
  N      412.784    -356.855    -677.512
  C      412.220    -357.307    -676.307
  O      412.601    -356.852    -675.226
  N      411.251    -358.287    -676.354
  C      410.872    -358.760    -677.499
  N      409.914    -359.734    -677.474
  C      411.424    -358.313    -678.787
  C      412.360    -357.364    -678.720
  O      415.502    -354.393    -683.372
  O      417.087    -356.449    -683.120
  H      415.031    -354.702    -675.387
  H      416.230    -353.736    -683.219
  H      411.078    -358.743    -679.716
  H      412.819    -356.980    -679.635
  H      413.383    -354.915    -677.004
  H      414.788    -356.979    -675.749
  H      415.515    -357.860    -677.920
  H      416.326    -354.930    -678.483
  H      409.597    -360.063    -676.572
  H      417.294    -356.464    -680.132
  H      409.656    -360.272    -678.295
  H      415.717    -357.276    -680.339
  P      418.176    -358.130    -677.898
  C      420.408    -356.851    -678.363
  O      419.169    -357.329    -678.886
  O      417.161    -358.839    -678.904
  O      418.841    -359.114    -676.986
  H      417.380    -359.786    -679.020
  H      420.949    -356.345    -679.135
  H      420.986    -357.677    -678.004
  H      420.217    -356.173    -677.558

 6  7  8  9  10  11  12  13  14  15  16  26  30  31  32  33  35 0
 6-311+G(2d,p)
 ****
 37  38 0
 6-311+G(2d,p)
 ****
 1  2  3  4  5  17  18  19  20  21  22  23  24  25 0
 3-21G
 ****
 27  28  29  34  36  39  40  41  42  43  44  45  46 0
 3-21G
 ****


