%nproc=1
%NoSave
%Mem=1900MB
#P OB98/GEN NMR

erre ene a

0 1
  C      120.985     -60.893     190.424
  O      121.265     -61.139     189.060
  H      121.802     -60.305     190.851
  H      120.908     -61.836     190.972
  H      120.053     -60.330     190.522
  P      120.227     -62.083     188.280
  C      121.763     -64.185     188.094
  O      120.656     -63.565     188.731
  C      121.535     -65.691     188.018
  O      121.312     -66.240     189.335
  C      120.316     -66.096     187.197
  O      120.552     -66.053     185.799
  C      120.112     -67.515     187.693
  O      121.091     -68.382     187.093
  C      120.375     -67.344     189.207
  N      119.159     -67.076     189.975
  C      118.411     -68.191     190.376
  O      118.774     -69.328     190.078
  N      117.249     -67.989     191.082
  C      116.869     -66.784     191.372
  N      115.703     -66.642     192.059
  C      117.633     -65.584     190.984
  C      118.751     -65.801     190.296
  O      120.730     -62.023     186.761
  O      118.782     -61.762     188.463
  H      120.959     -68.335     186.129
  H      120.228     -62.676     186.216
  H      117.270     -64.598     191.238
  H      119.364     -64.965     189.974
  H      120.863     -68.234     189.623
  H      119.129     -67.919     187.444
  H      119.435     -65.501     187.463
  H      122.452     -66.152     187.624
  H      115.170     -67.479     192.257
  H      122.663     -63.968     188.678
  H      115.241     -65.749     192.170
  H      121.887     -63.785     187.083
  P      119.350     -65.556     184.856
  C      118.938     -67.983     184.028
  O      118.386     -66.817     184.622
  O      120.060     -65.370     183.436
  O      118.666     -64.304     185.311
  H      119.715     -64.584     182.969
  H      118.178     -68.731     183.938
  H      119.733     -68.353     184.641
  H      119.319     -67.743     183.057

 6  7  8  9  10  11  12  13  14  15  16  26  30  31  32  33  35 0
 6-311+G(2d,p)
 ****
 37  38 0
 6-311+G(2d,p)
 ****
 1  2  3  4  5  17  18  19  20  21  22  23  24  25 0
 3-21G
 ****
 27  28  29  34  36  39  40  41  42  43  44  45  46 0
 3-21G
 ****


