%nproc=1
%NoSave
%Mem=1900MB
#P OB98/GEN NMR

erre ene a

0 1
  C      127.917    -299.682      -2.557
  O      127.029    -299.528      -3.644
  H      127.629    -298.980      -1.768
  H      128.939    -299.453      -2.870
  H      127.871    -300.696      -2.154
  P      127.124    -300.557      -4.868
  C      125.399    -302.356      -4.216
  O      126.777    -302.009      -4.289
  C      125.196    -303.788      -4.708
  O      125.536    -303.881      -6.111
  C      126.085    -304.811      -4.010
  O      125.616    -305.103      -2.709
  C      126.019    -305.966      -4.994
  O      124.828    -306.739      -4.808
  C      125.985    -305.231      -6.354
  N      127.291    -305.242      -7.015
  C      127.895    -306.486      -7.160
  O      127.388    -307.539      -6.776
  N      129.150    -306.479      -7.711
  C      129.887    -305.365      -7.991
  O      131.086    -305.398      -8.249
  C      129.175    -304.082      -7.878
  C      127.933    -304.079      -7.389
  O      128.374    -300.477      -5.681
  O      125.831    -300.209      -5.751
  H      126.104    -299.674      -6.521
  H      124.084    -306.108      -4.895
  H      129.612    -307.374      -7.779
  H      129.704    -303.180      -8.160
  H      127.398    -303.140      -7.264
  H      125.251    -305.697      -7.022
  H      126.872    -306.636      -4.881
  H      127.117    -304.438      -3.967
  H      124.136    -304.047      -4.595
  H      124.830    -301.669      -4.851
  H      125.060    -302.251      -3.181
  P      126.486    -306.018      -1.723
  C      127.882    -303.933      -1.166
  O      127.913    -305.314      -1.509
  O      126.552    -307.466      -2.088
  O      125.782    -305.827      -0.294
  H      125.616    -306.711       0.093
  H      128.882    -303.572      -1.049
  H      127.347    -303.805      -0.248
  H      127.393    -303.383      -1.943

 6  7  8  9  10  11  12  13  14  15  16  27  31  32  33  34  35 0
 6-311+G(2d,p)
 ****
 36  37 0
 6-311+G(2d,p)
 ****
 1  2  3  4  5  17  18  19  20  21  22  23  24  25 0
 3-21G
 ****
 26  28  29  30  38  39  40  41  42  43  44  45 0
 3-21G
 ****


