%nproc=1
%NoSave
%Mem=1900MB
#P OB98/GEN NMR

erre ene a

0 1
  C     -198.490     212.532     387.824
  O     -198.549     211.518     386.814
  P     -198.357     210.007     387.315
  C     -195.841     210.232     387.910
  O     -196.820     209.604     387.092
  C     -194.643     209.300     388.132
  O     -195.003     208.104     388.857
  C     -194.006     208.816     386.834
  O     -193.158     209.829     386.308
  C     -193.241     207.586     387.300
  O     -191.956     207.938     387.848
  C     -194.160     207.020     388.400
  N     -194.241     202.053     387.380
  C     -193.170     202.889     387.632
  N     -191.946     202.315     387.630
  N     -193.289     204.169     387.857
  C     -194.568     204.609     387.825
  C     -195.713     203.873     387.620
  C     -195.575     202.457     387.363
  O     -196.492     201.670     387.164
  N     -196.839     204.653     387.724
  C     -196.359     205.878     387.866
  N     -194.991     205.896     388.002
  O     -199.150     209.152     386.221
  O     -198.891     209.764     388.693
  H     -191.410     208.337     387.145
  H     -199.955     208.772     386.613
  H     -194.093     201.073     387.204
  H     -196.959     206.778     387.908
  H     -193.579     206.676     389.267
  H     -193.046     206.894     386.478
  H     -191.783     201.329     387.465
  H     -194.782     208.530     386.112
  H     -191.148     202.903     387.822
  H     -193.906     209.850     388.728
  H     -196.276     210.504     388.875
  H     -195.526     211.158     387.435
  P     -193.748     210.775     385.160
  C     -192.861     208.945     383.543
  O     -193.084     210.326     383.773
  O     -193.071     212.190     385.470
  O     -195.242     210.883     385.144
  H     -193.742     212.902     385.394
  H     -192.917     208.755     382.470
  H     -193.603     208.328     384.055
  H     -191.860     208.680     383.899
  H     -198.630     213.492     387.374
  H     -197.535     212.500     388.306
  H     -199.260     212.361     388.547

 3  4  5  6  7  8  9  10  11  12  23  26  30  31 0
 6-311+G(2d,p)
 ****
 33  35  36  37  38 0
 6-311+G(2d,p)
 ****
 1  2  13  14  15  16  17  18  19  20  21  22  24  25 0
 3-21G
 ****
 27  28  29  32  34  39  40  41  42  43  44  45  46  47  48  49 0
 3-21G
 ****


