%nproc=1
%NoSave
%Mem=1900MB
#P OB98/GEN NMR

erre ene a

0 1
  C     -204.999      -4.452    -115.348
  O     -205.217      -5.808    -115.015
  H     -203.936      -4.227    -115.228
  H     -205.574      -3.800    -114.685
  H     -205.285      -4.268    -116.388
  P     -206.745      -6.308    -115.029
  C     -208.873      -4.935    -114.398
  O     -207.505      -5.211    -114.134
  C     -209.128      -3.435    -114.278
  O     -208.154      -2.691    -115.042
  C     -210.487      -2.991    -114.808
  O     -211.546      -3.251    -113.901
  C     -210.240      -1.504    -114.977
  O     -210.272      -0.859    -113.690
  C     -208.810      -1.502    -115.562
  N     -208.788      -1.504    -117.027
  C     -209.443      -0.445    -117.665
  O     -210.011       0.427    -117.010
  N     -209.468      -0.415    -119.040
  C     -208.883      -1.353    -119.719
  N     -208.950      -1.280    -121.075
  C     -208.166      -2.476    -119.085
  C     -208.160      -2.491    -117.756
  O     -206.731      -7.589    -114.070
  O     -207.343      -6.550    -116.374
  H     -210.183       0.099    -113.852
  H     -207.656      -7.899    -113.913
  H     -207.703      -3.240    -119.693
  H     -207.654      -3.288    -117.221
  H     -208.240      -0.635    -115.206
  H     -210.988      -1.013    -115.602
  H     -210.699      -3.426    -115.792
  H     -209.001      -3.155    -113.224
  H     -209.501      -0.534    -121.478
  H     -209.482      -5.482    -113.671
  H     -208.685      -2.051    -121.676
  H     -209.135      -5.268    -115.407
  P     -213.042      -3.258    -114.486
  C     -214.489      -1.639    -115.910
  O     -213.266      -1.848    -115.218
  O     -213.944      -3.138    -113.170
  O     -213.396      -4.465    -115.301
  H     -214.745      -3.689    -113.241
  H     -214.491      -0.660    -116.343
  H     -215.306      -1.728    -115.225
  H     -214.591      -2.371    -116.683

 6  7  8  9  10  11  12  13  14  15  16  26  30  31  32  33  35 0
 6-311+G(2d,p)
 ****
 37  38 0
 6-311+G(2d,p)
 ****
 1  2  3  4  5  17  18  19  20  21  22  23  24  25 0
 3-21G
 ****
 27  28  29  34  36  39  40  41  42  43  44  45  46 0
 3-21G
 ****


