%nproc=1
%NoSave
%Mem=1900MB
#P OB98/GEN NMR

erre ene a

0 1
  C      545.579     -64.296      53.850
  O      545.080     -63.739      55.049
  H      546.280     -65.101      54.102
  H      546.111     -63.532      53.273
  H      544.764     -64.712      53.253
  P      543.903     -62.660      54.911
  C      545.422     -60.569      54.457
  O      544.516     -61.233      55.325
  C      546.430     -59.757      55.271
  O      545.781     -58.660      55.957
  C      547.088     -60.547      56.391
  O      548.016     -61.502      55.912
  C      547.727     -59.413      57.185
  O      548.938     -58.966      56.565
  C      546.626     -58.320      57.092
  N      545.858     -58.201      58.322
  C      546.162     -57.085      59.126
  O      547.017     -56.289      58.767
  N      545.494     -56.945      60.309
  C      544.595     -57.802      60.660
  N      543.974     -57.603      61.861
  C      544.223     -58.967      59.837
  C      544.890     -59.103      58.690
  O      542.954     -63.013      56.153
  O      543.205     -62.645      53.588
  H      549.584     -59.694      56.670
  H      543.425     -63.036      57.002
  H      543.453     -59.654      60.160
  H      544.683     -59.934      58.035
  H      547.075     -57.346      56.870
  H      547.984     -59.718      58.202
  H      546.333     -61.013      57.025
  H      547.168     -59.337      54.577
  H      544.270     -56.804      62.408
  H      544.891     -59.926      53.747
  H      543.283     -58.220      62.251
  H      545.944     -61.341      53.873
  P      547.646     -63.059      55.896
  C      547.803     -63.448      58.434
  O      548.383     -63.712      57.155
  O      547.895     -63.755      54.592
  O      546.105     -63.075      56.354
  H      545.937     -62.701      57.240
  H      548.379     -63.934      59.194
  H      546.800     -63.820      58.454
  H      547.796     -62.393      58.611

 6  7  8  9  10  11  12  13  14  15  16  26  30  31  32  33  35 0
 6-311+G(2d,p)
 ****
 37  38 0
 6-311+G(2d,p)
 ****
 1  2  3  4  5  17  18  19  20  21  22  23  24  25 0
 3-21G
 ****
 27  28  29  34  36  39  40  41  42  43  44  45  46 0
 3-21G
 ****


