%nproc=1
%NoSave
%Mem=1900MB
#P OB98/GEN NMR

erre ene a

0 1
  C       63.477    -340.070      -4.594
  O       64.642    -340.045      -5.435
  P       65.695    -341.260      -5.351
  C       64.325    -343.492      -5.404
  O       65.077    -342.523      -6.123
  C       63.402    -344.262      -6.353
  O       62.585    -343.348      -7.119
  C       64.134    -345.104      -7.393
  O       64.647    -346.304      -6.833
  C       63.030    -345.337      -8.422
  O       62.183    -346.427      -8.027
  C       62.260    -344.003      -8.367
  N       62.545    -343.137      -9.511
  C       61.627    -342.121      -9.760
  O       60.599    -341.961      -9.107
  N       61.923    -341.297     -10.816
  C       62.982    -341.438     -11.671
  O       63.179    -340.679     -12.615
  C       63.868    -342.577     -11.408
  C       63.611    -343.366     -10.363
  O       65.558    -341.714      -3.819
  O       67.109    -340.916      -5.677
  H       61.490    -346.509      -8.711
  H       66.399    -342.108      -3.519
  H       61.290    -340.536     -10.995
  H       64.706    -342.736     -12.076
  H       64.257    -344.218     -10.150
  H       61.181    -344.190      -8.335
  H       63.429    -345.580      -9.413
  H       64.938    -344.513      -7.850
  H       62.735    -344.891      -5.745
  H       63.716    -342.984      -4.649
  H       65.014    -344.176      -4.894
  P       66.147    -346.248      -6.264
  C       67.265    -344.651      -4.513
  O       66.085    -345.252      -5.005
  O       66.879    -345.417      -7.422
  O       66.731    -347.600      -6.008
  H       66.291    -344.749      -7.821
  H       67.984    -344.452      -5.314
  H       67.723    -345.320      -3.774
  H       67.008    -343.708      -4.031
  H       62.888    -339.195      -4.774
  H       63.778    -340.092      -3.568
  H       62.897    -340.942      -4.814

 3  4  5  6  7  8  9  10  11  12  13  23  28  29  30  31  32 0
 6-311+G(2d,p)
 ****
 33  34 0
 6-311+G(2d,p)
 ****
 1  2  14  15  16  17  18  19  20  21  22  24  25  26 0
 3-21G
 ****
 27  35  36  37  38  39  40  41  42  43  44  45 0
 3-21G
 ****


