%nproc=1
%NoSave
%Mem=1900MB
#P OB98/GEN NMR

erre ene a

0 1
  C      735.497    1117.733     366.908
  O      736.020    1117.697     368.235
  P      735.739    1118.976     369.168
  C      734.951    1117.640     371.292
  O      734.612    1118.499     370.213
  C      734.734    1118.350     372.625
  O      735.704    1119.414     372.797
  C      733.371    1119.020     372.743
  O      732.344    1118.065     372.980
  C      733.628    1119.972     373.915
  O      733.541    1119.268     375.159
  C      735.084    1120.402     373.664
  N      735.195    1121.739     373.089
  C      736.244    1122.528     373.579
  O      737.020    1122.134     374.449
  N      736.348    1123.777     373.036
  C      735.515    1124.320     372.102
  O      735.669    1125.447     371.641
  C      734.408    1123.465     371.659
  C      734.294    1122.230     372.165
  O      734.969    1119.939     368.161
  O      736.986    1119.547     369.772
  H      734.396    1119.458     367.536
  H      733.795    1119.897     375.858
  H      737.110    1124.358     373.362
  H      733.710    1123.879     370.940
  H      733.480    1121.589     371.858
  H      735.661    1120.388     374.598
  H      732.911    1120.791     373.952
  H      733.156    1119.598     371.845
  H      734.872    1117.622     373.421
  H      736.003    1117.343     371.209
  H      734.342    1116.730     371.219
  P      730.849    1118.503     372.572
  C      731.619    1117.713     370.203
  O      730.821    1118.575     370.974
  O      730.845    1120.042     373.025
  O      729.789    1117.668     373.194
  H      731.657    1120.521     372.778
  H      731.222    1117.668     369.186
  H      731.618    1116.701     370.624
  H      732.649    1118.097     370.158
  H      735.754    1116.828     366.399
  H      735.913    1118.567     366.383
  H      734.432    1117.831     366.947

 3  4  5  6  7  8  9  10  11  12  13  24  28  29  30  31  32 0
 6-311+G(2d,p)
 ****
 33  34 0
 6-311+G(2d,p)
 ****
 1  2  14  15  16  17  18  19  20  21  22  23  25  26  27 0
 3-21G
 ****
 35  36  37  38  39  40  41  42  43  44  45 0
 3-21G
 ****


