%nproc=1
%NoSave
%Mem=1900MB
#P OB98/GEN NMR

erre ene a

0 1
  C     -307.151     625.556    -446.914
  O     -305.743     625.639    -446.993
  H     -307.547     625.385    -447.916
  H     -307.574     626.484    -446.523
  H     -307.448     624.712    -446.278
  P     -304.917     625.928    -445.646
  C     -302.767     624.953    -446.694
  O     -303.380     626.087    -446.093
  C     -301.327     625.285    -447.098
  O     -301.318     626.106    -448.281
  C     -300.543     626.057    -446.038
  O     -300.040     625.170    -445.050
  C     -299.439     626.662    -446.891
  O     -298.460     625.655    -447.204
  C     -300.222     627.055    -448.164
  N     -300.263     631.523    -450.575
  C     -299.479     630.412    -450.799
  N     -298.561     630.510    -451.772
  N     -299.584     629.297    -450.113
  C     -300.499     629.363    -449.112
  C     -301.317     630.421    -448.784
  C     -301.245     631.623    -449.585
  O     -301.932     632.627    -449.450
  N     -302.052     630.154    -447.650
  C     -301.714     628.912    -447.332
  N     -300.761     628.394    -448.181
  O     -305.132     624.959    -444.520
  O     -305.336     627.420    -445.242
  H     -298.896     625.007    -447.806
  H     -306.097     627.422    -444.636
  H     -300.128     632.362    -451.120
  H     -302.118     628.358    -446.506
  H     -299.602     626.948    -449.071
  H     -298.922     627.481    -446.394
  H     -298.335     631.385    -452.238
  H     -301.139     626.867    -445.600
  H     -297.936     629.712    -451.919
  H     -300.825     624.339    -447.355
  H     -303.357     624.688    -447.582
  H     -302.763     624.102    -446.007
  P     -300.233     625.458    -443.480
  C     -300.736     622.959    -443.061
  O     -299.913     624.070    -442.748
  O     -301.538     626.075    -443.113
  O     -298.960     626.341    -443.080
  H     -299.087     627.307    -443.255
  H     -300.410     622.106    -442.504
  H     -300.668     622.748    -444.108
  H     -301.751     623.184    -442.808

 6  7  8  9  10  11  12  13  14  15  26  29  33  34 0
 6-311+G(2d,p)
 ****
 36  38  39  40  41 0
 6-311+G(2d,p)
 ****
 1  2  3  4  5  16  17  18  19  20  21  22  23  24  25 0
 3-21G
 ****
 27  28  30  31  32  35  37  42  43  44  45  46  47 0
 3-21G
 ****
 48  49 0
 3-21G
 ****


