%nproc=1
%NoSave
%Mem=1900MB
#P OB98/GEN NMR

erre ene a

0 1
  C      -68.991    -127.020    -221.393
  O      -68.701    -128.104    -222.248
  H      -68.197    -126.275    -221.491
  H      -69.027    -127.360    -220.355
  H      -69.943    -126.560    -221.668
  P      -69.758    -129.313    -222.284
  C      -68.487    -131.140    -220.934
  O      -69.492    -130.135    -220.926
  C      -68.289    -131.709    -219.526
  O      -69.527    -132.315    -219.081
  C      -67.194    -132.774    -219.452
  O      -66.405    -132.559    -218.281
  C      -67.955    -134.083    -219.355
  O      -67.199    -135.101    -218.702
  C      -69.240    -133.654    -218.638
  N      -70.351    -134.558    -218.926
  C      -70.328    -135.806    -218.296
  O      -69.394    -136.105    -217.548
  N      -71.329    -136.703    -218.566
  C      -72.241    -136.407    -219.437
  N      -73.195    -137.347    -219.677
  C      -72.279    -135.122    -220.162
  C      -71.317    -134.252    -219.857
  O      -69.172    -130.268    -223.423
  O      -71.179    -128.911    -222.499
  H      -67.083    -134.837    -217.763
  H      -69.834    -130.947    -223.701
  H      -73.051    -134.927    -220.891
  H      -71.264    -133.284    -220.342
  H      -69.085    -133.625    -217.551
  H      -68.193    -134.440    -220.365
  H      -66.538    -132.770    -220.323
  H      -68.083    -130.878    -218.843
  H      -73.130    -138.220    -219.170
  H      -67.550    -130.701    -221.287
  H      -73.933    -137.236    -220.356
  H      -68.788    -131.944    -221.615
  P      -65.111    -131.626    -218.467
  C      -64.097    -133.268    -220.196
  O      -64.497    -131.935    -219.918
  O      -64.047    -132.258    -217.454
  O      -65.372    -130.182    -218.191
  H      -64.016    -131.744    -216.627
  H      -63.710    -133.324    -221.192
  H      -64.940    -133.920    -220.104
  H      -63.339    -133.565    -219.502

 6  7  8  9  10  11  12  13  14  15  16  26  30  31  32  33  35 0
 6-311+G(2d,p)
 ****
 37  38 0
 6-311+G(2d,p)
 ****
 1  2  3  4  5  17  18  19  20  21  22  23  24  25 0
 3-21G
 ****
 27  28  29  34  36  39  40  41  42  43  44  45  46 0
 3-21G
 ****


