%nproc=1
%NoSave
%Mem=1900MB
#P OB98/GEN NMR

erre ene a

0 1
  C     -891.490     532.542    1148.652
  O     -892.780     532.776    1148.122
  H     -891.420     533.013    1149.624
  H     -890.730     532.953    1147.985
  H     -891.340     531.452    1148.768
  P     -893.080     532.250    1146.644
  C     -894.520     530.227    1147.431
  O     -894.480     531.443    1146.700
  C     -895.690     530.265    1148.419
  O     -895.440     531.300    1149.432
  C     -897.020     530.626    1147.803
  O     -897.630     529.543    1147.129
  C     -897.800     531.078    1149.019
  O     -898.400     529.962    1149.701
  C     -896.730     531.761    1149.882
  N     -896.830     533.209    1149.858
  C     -898.060     533.738    1150.282
  O     -898.990     533.045    1150.677
  N     -898.140     535.097    1150.209
  C     -897.220     535.960    1149.724
  O     -897.420     537.176    1149.617
  C     -895.960     535.344    1149.250
  C     -895.830     534.011    1149.354
  O     -891.980     531.086    1146.437
  O     -893.000     533.285    1145.565
  H     -891.290     531.406    1145.842
  H     -897.700     529.311    1149.829
  H     -899.030     535.515    1150.524
  H     -895.200     536.002    1148.858
  H     -894.920     533.532    1149.007
  H     -896.830     531.433    1150.939
  H     -898.620     531.746    1148.732
  H     -896.900     531.490    1147.120
  H     -895.740     529.313    1148.942
  H     -893.570     530.110    1148.008
  H     -894.620     529.375    1146.736
  P     -898.780     529.868    1146.069
  C     -896.850     530.417    1144.345
  O     -898.090     529.794    1144.606
  O     -899.000     531.440    1146.306
  O     -900.000     529.024    1146.242
  H     -898.190     531.874    1146.654
  H     -896.574     530.249    1143.325
  H     -896.102     530.006    1144.990
  H     -896.935     531.469    1144.523

 6  7  8  9  10  11  12  13  14  15  16  27  31  32  33  34  35 0
 6-311+G(2d,p)
 ****
 36  37 0
 6-311+G(2d,p)
 ****
 1  2  3  4  5  17  18  19  20  21  22  23  24  25 0
 3-21G
 ****
 26  28  29  30  38  39  40  41  42  43  44  45 0
 3-21G
 ****


