%nproc=1
%NoSave
%Mem=1900MB
#P OB98/GEN NMR

erre ene a

0 1
  C     -512.181     776.329    -574.969
  O     -512.540     774.964    -574.813
  P     -513.760     774.354    -575.653
  C     -512.203     773.396    -577.504
  O     -513.280     774.249    -577.180
  C     -512.529     772.540    -578.731
  O     -513.607     771.639    -578.379
  C     -513.024     773.325    -579.948
  O     -512.880     772.496    -581.104
  C     -514.489     773.504    -579.617
  O     -515.271     773.797    -580.777
  C     -514.846     772.167    -578.910
  N     -515.816     772.382    -577.828
  C     -516.631     771.311    -577.489
  O     -516.518     770.198    -577.999
  N     -517.642     771.579    -576.595
  C     -517.923     772.807    -576.073
  O     -518.988     773.093    -575.545
  C     -516.899     773.837    -576.282
  C     -515.913     773.595    -577.157
  O     -514.813     775.565    -575.667
  O     -514.351     773.112    -575.088
  H     -514.851     774.581    -581.212
  H     -515.472     775.441    -574.962
  H     -518.317     770.836    -576.468
  H     -517.009     774.775    -575.762
  H     -515.177     774.354    -577.371
  H     -515.269     771.443    -579.608
  H     -514.603     774.339    -578.922
  H     -512.516     774.280    -580.101
  H     -511.651     771.933    -578.998
  H     -511.965     772.763    -576.638
  H     -511.299     773.983    -577.711
  P     -513.228     773.137    -582.534
  C     -510.770     773.214    -583.267
  O     -511.925     773.971    -582.974
  O     -514.529     773.873    -582.628
  O     -513.185     771.872    -583.514
  H     -513.661     772.080    -584.346
  H     -510.176     773.767    -584.013
  H     -511.022     772.234    -583.671
  H     -510.179     773.092    -582.360
  H     -511.351     776.554    -574.333
  H     -513.012     776.949    -574.704
  H     -511.910     776.512    -575.988

 3  4  5  6  7  8  9  10  11  12  13  23  28  29  30  31  32 0
 6-311+G(2d,p)
 ****
 33  34 0
 6-311+G(2d,p)
 ****
 1  2  14  15  16  17  18  19  20  21  22  24  25  26  27 0
 3-21G
 ****
 35  36  37  38  39  40  41  42  43  44  45 0
 3-21G
 ****


