%nproc=1
%NoSave
%Mem=1900MB
#P OB98/GEN NMR

erre ene a

0 1
  C     -518.426     138.834     437.722
  O     -518.585     137.841     438.715
  H     -519.396     139.301     437.530
  H     -518.058     138.385     436.794
  H     -517.726     139.603     438.063
  P     -517.264     137.047     439.159
  C     -517.174     137.740     441.664
  O     -516.617     137.887     440.362
  C     -516.188     137.008     442.566
  O     -514.928     137.717     442.592
  C     -516.631     136.915     444.020
  O     -517.598     135.902     444.228
  C     -515.307     136.642     444.713
  O     -514.969     135.250     444.668
  C     -514.316     137.460     443.877
  N     -511.920     141.920     443.240
  C     -512.185     140.912     442.385
  N     -512.842     139.758     442.630
  C     -513.267     139.716     443.904
  C     -513.075     140.671     444.888
  C     -512.364     141.825     444.516
  N     -512.069     142.842     445.391
  N     -513.621     140.254     446.084
  C     -514.144     139.071     445.826
  N     -513.959     138.707     444.521
  O     -516.264     137.302     437.937
  O     -517.457     135.594     439.427
  H     -514.578     135.092     443.786
  H     -516.256     136.519     437.355
  H     -511.814     141.040     441.373
  H     -514.657     138.442     446.545
  H     -513.383     136.912     443.689
  H     -515.349     136.939     445.763
  H     -517.015     137.885     444.359
  H     -516.006     136.008     442.148
  H     -518.104     137.165     441.597
  H     -517.401     138.735     442.066
  H     -511.499     143.606     445.072
  H     -512.297     142.726     446.372
  P     -518.416     135.921     445.604
  C     -520.582     136.925     444.557
  O     -519.521     137.078     445.487
  O     -517.367     136.504     446.667
  O     -518.951     134.597     446.028
  H     -517.501     136.075     447.532
  H     -521.225     137.779     444.606
  H     -521.141     136.044     444.795
  H     -520.180     136.837     443.569

 6  7  8  9  10  11  12  13  14  15  25  28  32  33  34  35 0
 6-311+G(2d,p)
 ****
 36  37  40 0
 6-311+G(2d,p)
 ****
 1  2  3  4  5  16  17  18  19  20  21  22  23  24 0
 3-21G
 ****
 26  27  29  30  31  38  39 41  42  43  44  45  46  47  48 0
 3-21G
 ****


