%nproc=1
%NoSave
%Mem=1900MB
#P OB98/GEN NMR

erre ene a

0 1
  C      -96.789       0.645     138.621
  O      -95.399       0.635     138.867
  H      -97.019      -0.138     137.895
  H      -97.098       1.607     138.208
  H      -97.340       0.440     139.543
  P      -94.783       1.736     139.856
  C      -93.875       3.289     138.005
  O      -94.809       3.134     139.068
  C      -93.803       4.759     137.575
  O      -92.987       4.830     136.380
  C      -95.184       5.346     137.254
  O      -95.451       6.556     137.957
  C      -95.198       5.385     135.730
  O      -96.053       6.364     135.179
  C      -93.719       5.550     135.371
  N      -93.375       5.061     134.038
  C      -93.646       5.898     132.960
  O      -94.138       7.021     133.044
  N      -93.317       5.398     131.726
  C      -92.775       4.174     131.471
  O      -92.500       3.784     130.343
  C      -92.539       3.324     132.648
  C      -92.846       3.798     133.858
  O      -93.467       1.389     140.465
  O      -95.914       1.932     140.971
  H      -96.064       6.225     134.208
  H      -95.636       1.491     141.797
  H      -93.494       6.002     130.939
  H      -92.121       2.341     132.481
  H      -92.682       3.198     134.747
  H      -93.425       6.600     135.423
  H      -95.546       4.412     135.363
  H      -95.981       4.676     137.597
  H      -93.292       5.331     138.358
  H      -94.210       2.666     137.170
  H      -92.887       2.949     138.331
  P      -96.699       6.802     138.916
  C      -98.472       7.740     137.215
  O      -98.039       6.678     138.054
  O      -96.597       7.976     139.833
  O      -96.743       5.476     139.834
  H      -97.091       5.756     140.704
  H      -99.383       7.461     136.728
  H      -97.722       7.942     136.479
  H      -98.637       8.617     137.806

 6  7  8  9  10  11  12  13  14  15  16  26  31  32  33  34  35 0
 6-311+G(2d,p)
 ****
 36  37 0
 6-311+G(2d,p)
 ****
 1  2  3  4  5  17  18  19  20  21  22  23  24  25 0
 3-21G
 ****
 27  28  29  30  38  39  40  41  42  43  44  45 0
 3-21G
 ****


