%nproc=1
%NoSave
%Mem=1900MB
#P OB98/GEN NMR

erre ene a

0 1
  C       12.163     -31.209      32.040
  O       11.808     -29.987      31.421
  P       10.394     -29.915      30.669
  C        9.650     -27.867      32.102
  O        9.366     -29.188      31.659
  C        9.814     -27.856      33.623
  O       10.945     -28.663      34.013
  C       10.081     -26.473      34.198
  O        8.887     -25.712      34.295
  C       10.695     -26.813      35.548
  O        9.676     -27.083      36.524
  C       11.491     -28.093      35.221
  N       12.925     -27.847      35.107
  C       13.613     -27.689      36.307
  O       13.058     -27.727      37.406
  N       14.954     -27.444      36.200
  C       15.652     -27.291      35.037
  O       16.845     -27.016      35.005
  C       14.867     -27.440      33.800
  C       13.560     -27.700      33.890
  O        9.892     -31.436      30.649
  O       10.449     -29.332      29.298
  H       10.121     -27.521      37.276
  H        9.409     -31.614      29.821
  H       15.475     -27.352      37.057
  H       15.388     -27.324      32.859
  H       12.963     -27.799      32.992
  H       11.334     -28.844      36.005
  H       11.306     -25.994      35.941
  H       10.828     -25.951      33.586
  H        8.911     -28.293      34.071
  H        8.830     -27.204      31.814
  H       10.564     -27.516      31.614
  P        8.473     -24.843      33.009
  C        6.116     -25.907      32.637
  O        7.447     -25.767      32.194
  O        9.834     -24.884      32.168
  O        7.997     -23.473      33.361
  H       10.318     -25.718      32.296
  H        5.739     -24.977      33.074
  H        6.062     -26.705      33.381
  H        5.488     -26.176      31.784
  H       13.125     -31.110      32.499
  H       12.197     -31.985      31.304
  H       11.436     -31.456      32.785

 3  4  5  6  7  8  9  10  11  12  13  23  28  29  30  31  32 0
 6-311+G(2d,p)
 ****
 33  34 0
 6-311+G(2d,p)
 ****
 1  2  14  15  16  17  18  19  20  21  22  24  25  26 0
 3-21G
 ****
 27  35  36  37  38  39  40  41  42  43  44  45 0
 3-21G
 ****


