%nproc=1
%NoSave
%Mem=1900MB
#P OB98/GEN NMR

erre ene a

0 1
  C     -892.250     435.695    2053.604
  O     -893.670     435.617    2053.672
  P     -894.510     436.099    2054.974
  C     -896.230     437.831    2054.047
  O     -894.980     437.622    2054.695
  C     -896.040     438.428    2052.638
  O     -895.370     437.441    2051.790
  C     -897.300     438.785    2051.889
  O     -897.920     439.975    2052.388
  C     -896.770     438.912    2050.442
  O     -896.230     440.222    2050.212
  C     -895.670     437.844    2050.401
  N     -895.990     436.697    2049.572
  C     -895.720     436.820    2048.215
  O     -895.270     437.863    2047.732
  N     -895.940     435.727    2047.401
  C     -896.480     434.684    2047.882
  N     -896.690     433.579    2047.022
  C     -896.930     434.540    2049.317
  C     -896.650     435.585    2050.067
  O     -893.820     435.905    2056.264
  O     -895.890     435.255    2054.909
  H     -896.250     435.178    2055.819
  H     -896.980     440.770    2049.857
  H     -897.430     433.658    2049.674
  H     -896.940     435.594    2051.130
  H     -894.740     438.305    2050.039
  H     -897.600     438.765    2049.703
  H     -898.020     437.939    2051.954
  H     -895.370     439.323    2052.721
  H     -896.350     433.717    2046.074
  H     -896.840     438.542    2054.636
  H     -897.100     432.733    2047.339
  H     -896.790     436.873    2053.993
  P     -898.670     439.829    2053.805
  C     -897.390     441.610    2055.228
  O     -897.620     440.249    2054.981
  O     -898.870     438.237    2054.015
  O     -900.000     440.577    2053.877
  H     -899.760     438.045    2054.395
  H     -897.110     441.734    2056.279
  H     -898.310     442.230    2055.063
  H     -896.620     441.997    2054.593
  H     -891.917     435.324    2052.657
  H     -891.822     435.106    2054.388
  H     -891.943     436.714    2053.715

 3  4  5  6  7  8  9  10  11  12  13  24  27  28  29  30  32 0
 6-311+G(2d,p)
 ****
 34  35 0
 6-311+G(2d,p)
 ****
 1  2  14  15  16  17  18  19  20  21  22  23  25  26 0
 3-21G
 ****
 31  33  36  37  38  39  40  41  42  43  44  45  46 0
 3-21G
 ****


