%nproc=1
%NoSave
%Mem=1900MB
#P OB98/GEN NMR

erre ene a

0 1
  C     -733.697    1170.356    -896.533
  O     -734.746    1169.481    -896.923
  H     -734.096    1171.119    -895.863
  H     -733.265    1170.844    -897.423
  H     -732.908    1169.797    -896.013
  P     -734.338    1168.192    -897.773
  C     -733.804    1166.458    -895.863
  O     -734.705    1166.903    -896.873
  C     -734.547    1165.636    -894.823
  O     -735.476    1166.439    -894.063
  C     -735.419    1164.529    -895.423
  O     -734.652    1163.468    -895.973
  C     -736.248    1164.149    -894.203
  O     -735.503    1163.284    -893.323
  C     -736.508    1165.525    -893.563
  N     -737.849    1166.016    -893.813
  C     -738.701    1166.099    -892.693
  O     -738.260    1165.748    -891.573
  N     -739.984    1166.524    -892.873
  C     -740.392    1166.878    -894.053
  N     -741.702    1167.273    -894.173
  C     -739.535    1166.834    -895.263
  C     -738.275    1166.425    -895.063
  O     -732.738    1168.211    -897.733
  O     -734.927    1168.106    -899.153
  H     -734.673    1163.772    -893.093
  H     -732.370    1168.288    -896.813
  H     -739.934    1167.140    -896.213
  H     -737.597    1166.335    -895.893
  H     -736.350    1165.478    -892.483
  H     -737.154    1163.588    -894.473
  H     -736.101    1164.945    -896.173
  H     -733.815    1165.204    -894.123
  H     -742.278    1167.271    -893.303
  H     -733.287    1167.320    -895.383
  H     -742.147    1167.528    -895.023
  H     -733.028    1165.849    -896.353
  P     -735.267    1162.513    -897.123
  C     -734.692    1164.041    -899.133
  O     -734.398    1162.823    -898.483
  O     -736.738    1162.645    -897.283
  O     -734.754    1161.035    -896.693
  H     -733.784    1160.956    -896.653
  H     -734.073    1164.141    -900.000
  H     -734.505    1164.856    -898.465
  H     -735.721    1164.049    -899.426

 6  7  8  9  10  11  12  13  14  15  16  26  30  31  32  33  35 0
 6-311+G(2d,p)
 ****
 37  38 0
 6-311+G(2d,p)
 ****
 1  2  3  4  5  17  18  19  20  21  22  23  24  25 0
 3-21G
 ****
 27  28  29  34  36  39  40  41  42  43  44  45  46 0
 3-21G
 ****


