%nproc=1
%NoSave
%Mem=1900MB
#P OB98/GEN NMR

erre ene a

0 1
  C       47.836     -35.923    -115.757
  O       46.718     -36.686    -115.323
  P       45.251     -36.089    -115.568
  C       44.355     -38.150    -116.861
  O       44.686     -36.769    -116.910
  C       43.040     -38.428    -117.590
  O       43.188     -38.065    -118.989
  C       42.586     -39.890    -117.546
  O       41.154     -39.891    -117.527
  C       43.063     -40.436    -118.879
  O       42.359     -41.614    -119.263
  C       42.826     -39.223    -119.772
  N       43.230     -41.295    -124.428
  C       42.298     -41.433    -123.461
  N       42.259     -40.847    -122.247
  C       43.324     -40.047    -122.072
  C       44.371     -39.835    -122.953
  C       44.299     -40.500    -124.189
  N       45.241     -40.353    -125.179
  N       45.295     -38.968    -122.407
  C       44.816     -38.663    -121.219
  N       43.616     -39.272    -120.983
  O       45.555     -34.582    -116.013
  O       44.340     -36.135    -114.390
  H       42.336     -42.219    -118.499
  H       45.253     -33.963    -115.320
  H       41.470     -42.097    -123.697
  H       45.295     -38.015    -120.499
  H       41.771     -39.119    -120.060
  H       44.129     -40.684    -118.817
  H       42.978     -40.455    -116.694
  H       42.267     -37.773    -117.167
  H       44.244     -38.447    -115.815
  H       45.050     -40.752    -126.084
  H       45.937     -39.621    -125.087
  H       45.165     -38.736    -117.306
  P       40.436     -41.135    -116.815
  C       41.156     -40.132    -114.534
  O       41.094     -41.276    -115.363
  O       41.007     -42.399    -117.617
  O       38.945     -41.084    -116.856
  H       40.361     -43.128    -117.591
  H       41.050     -40.444    -113.492
  H       40.365     -39.413    -114.771
  H       42.128     -39.648    -114.664
  H       48.738     -36.449    -115.525
  H       47.837     -34.976    -115.258
  H       47.774     -35.769    -116.814

 3  4  5  6  7  8  9  10  11  12  22  25  29  30  31  32 0
 6-311+G(2d,p)
 ****
 33  36  37 0
 6-311+G(2d,p)
 ****
 1  2  13  14  15  16  17  18  19  20  21  23  24  26 0
 3-21G
 ****
 27  28  34  35  38  39  40  41  42  43  44  45  46  47  48 0
 3-21G
 ****


