%nproc=1
%NoSave
%Mem=1900MB
#P OB98/GEN NMR

erre ene a

0 1
  C      -75.274     -50.890    -129.271
  O      -76.394     -51.688    -129.682
  P      -76.765     -53.100    -129.009
  C      -79.212     -52.504    -128.458
  O      -78.339     -53.371    -129.171
  C      -80.685     -52.809    -128.753
  O      -81.043     -52.314    -130.080
  C      -81.049     -54.304    -128.710
  O      -82.346     -54.397    -128.117
  C      -81.082     -54.664    -130.191
  O      -81.784     -55.862    -130.469
  C      -81.730     -53.394    -130.751
  N      -81.651     -53.236    -132.200
  C      -82.806     -53.513    -132.949
  O      -83.834     -53.929    -132.414
  N      -82.761     -53.328    -134.311
  C      -81.673     -52.916    -134.879
  N      -81.700     -52.745    -136.231
  C      -80.431     -52.634    -134.133
  C      -80.494     -52.812    -132.815
  O      -76.280     -53.238    -127.600
  O      -76.088     -54.210    -129.946
  H      -75.772     -54.950    -129.392
  H      -82.731     -55.700    -130.302
  H      -79.548     -52.287    -134.648
  H      -79.629     -52.597    -132.191
  H      -82.777     -53.352    -130.434
  H      -80.055     -54.789    -130.544
  H      -80.349     -54.909    -128.122
  H      -81.298     -52.249    -128.035
  H      -82.576     -52.940    -136.705
  H      -78.998     -51.473    -128.754
  H      -80.912     -52.422    -136.768
  H      -79.012     -52.598    -127.383
  P      -82.492     -54.823    -126.581
  C      -84.334     -53.160    -125.780
  O      -83.993     -54.488    -126.122
  O      -81.659     -53.667    -125.838
  O      -81.951     -56.165    -126.210
  H      -81.331     -54.007    -124.983
  H      -85.293     -52.913    -126.238
  H      -83.586     -52.437    -126.116
  H      -84.433     -53.087    -124.689
  H      -75.234     -50.000    -129.863
  H      -74.371     -51.448    -129.404
  H      -75.383     -50.627    -128.239

 3  4  5  6  7  8  9  10  11  12  13  24  27  28  29  30  32 0
 6-311+G(2d,p)
 ****
 34  35 0
 6-311+G(2d,p)
 ****
 1  2  14  15  16  17  18  19  20  21  22  23  25  26 0
 3-21G
 ****
 31  33  36  37  38  39  40  41  42  43  44  45  46 0
 3-21G
 ****


