%nproc=1
%NoSave
%Mem=1900MB
#P OB98/GEN NMR

erre ene a

0 1
  C       65.139    -193.757    -250.496
  O       63.888    -194.221    -251.031
  P       63.759    -195.789    -251.363
  C       62.804    -195.557    -253.796
  O       62.571    -195.905    -252.436
  C       61.473    -195.312    -254.506
  O       60.912    -194.030    -254.119
  C       61.574    -195.267    -256.027
  O       61.746    -196.567    -256.572
  C       60.261    -194.590    -256.387
  O       59.182    -195.542    -256.364
  C       60.092    -193.578    -255.223
  N       60.418    -192.208    -255.608
  C       59.343    -191.321    -255.664
  O       58.183    -191.662    -255.436
  N       59.650    -190.034    -256.017
  C       60.891    -189.564    -256.335
  O       61.111    -188.392    -256.630
  C       61.978    -190.556    -256.307
  C       61.699    -191.814    -255.952
  O       63.128    -196.337    -250.002
  O       65.061    -196.408    -251.759
  H       62.507    -195.714    -249.590
  H       59.138    -195.927    -257.260
  H       58.889    -189.375    -256.047
  H       62.974    -190.227    -256.580
  H       62.490    -192.563    -255.924
  H       59.058    -193.594    -254.859
  H       60.278    -194.135    -257.385
  H       62.418    -194.624    -256.323
  H       60.768    -196.104    -254.198
  H       63.339    -196.364    -254.303
  H       63.440    -194.664    -253.829
  P       63.007    -196.783    -257.554
  C       61.920    -197.029    -259.921
  O       62.474    -197.658    -258.788
  O       63.893    -197.804    -256.696
  O       63.706    -195.514    -257.917
  H       63.373    -198.522    -256.298
  H       61.945    -197.734    -260.761
  H       62.482    -196.138    -260.198
  H       60.877    -196.763    -259.720
  H       65.084    -192.702    -250.324
  H       65.924    -193.964    -251.193
  H       65.340    -194.259    -249.573

 3  4  5  6  7  8  9  10  11  12  13  24  28  29  30  31  32 0
 6-311+G(2d,p)
 ****
 33  34 0
 6-311+G(2d,p)
 ****
 1  2  14  15  16  17  18  19  20  21  22  23  25  26  27 0
 3-21G
 ****
 35  36  37  38  39  40  41  42  43  44  45 0
 3-21G
 ****


