%nproc=1
%NoSave
%Mem=1900MB
#P OB98/GEN NMR

erre ene a

0 1
  C      -19.220     173.884     -60.401
  O      -19.982     174.923     -60.984
  H      -19.296     172.995     -61.032
  H      -19.609     173.644     -59.407
  H      -18.169     174.181     -60.329
  P      -20.047     176.303     -60.166
  C      -22.571     176.151     -59.595
  O      -21.554     176.840     -60.307
  C      -23.942     176.745     -59.911
  O      -24.146     177.975     -59.184
  C      -24.163     177.062     -61.386
  O      -24.573     175.907     -62.100
  C      -25.252     178.121     -61.301
  O      -26.549     177.512     -61.106
  C      -24.833     178.917     -60.056
  N      -24.680     183.591     -61.963
  C      -25.714     182.677     -61.925
  N      -26.878     183.051     -62.504
  N      -25.620     181.494     -61.377
  C      -24.385     181.230     -60.886
  C      -23.278     182.050     -60.867
  C      -23.415     183.378     -61.428
  O      -22.561     184.263     -61.418
  N      -22.212     181.431     -60.265
  C      -22.664     180.229     -59.956
  N      -23.975     180.058     -60.317
  O      -19.206     177.318     -61.080
  O      -19.503     176.251     -58.779
  H      -27.198     178.206     -60.892
  H      -18.697     177.914     -60.498
  H      -24.820     184.500     -62.368
  H      -22.088     179.456     -59.460
  H      -25.700     179.296     -59.502
  H      -25.322     178.702     -62.221
  H      -26.921     183.803     -63.177
  H      -23.263     177.505     -61.833
  H      -27.609     182.351     -62.540
  H      -24.701     176.033     -59.556
  H      -22.375     176.243     -58.522
  H      -22.553     175.091     -59.872
  P      -24.113     175.757     -63.626
  C      -26.570     175.528     -64.439
  O      -25.266     174.963     -64.415
  O      -22.920     174.689     -63.536
  O      -23.650     177.021     -64.267
  H      -22.063     175.143     -63.645
  H      -27.224     174.891     -64.997
  H      -26.532     176.493     -64.900
  H      -26.935     175.625     -63.438

 6  7  8  9  10  11  12  13  14  15  26  29  33  34 0
 6-311+G(2d,p)
 ****
 36  38  39  40  41 0
 6-311+G(2d,p)
 ****
 1  2  3  4  5  16  17  18  19  20  21  22  23  24  25 0
 3-21G
 ****
 27  28  30  31  32  35  37  42  43  44  45  46  47 0
 3-21G
 ****
 48  49 0
 3-21G
 ****


