%nproc=1
%NoSave
%Mem=1900MB
#P OB98/GEN NMR

erre ene a

0 1
  C     -155.285     364.824    -312.741
  O     -155.162     364.183    -313.995
  H     -155.665     365.837    -312.902
  H     -154.312     364.892    -312.246
  H     -155.990     364.282    -312.105
  P     -154.547     362.705    -314.040
  C     -156.763     361.403    -314.333
  O     -155.678     361.726    -313.470
  C     -157.052     359.904    -314.295
  O     -155.953     359.167    -314.866
  C     -157.246     359.342    -312.891
  O     -158.514     359.699    -312.382
  C     -157.041     357.860    -313.158
  O     -158.217     357.271    -313.736
  C     -155.883     357.893    -314.186
  N     -154.566     357.696    -313.589
  C     -154.270     356.395    -313.169
  O     -155.100     355.495    -313.301
  N     -153.045     356.155    -312.598
  C     -152.178     357.111    -312.492
  N     -150.981     356.807    -311.924
  C     -152.439     358.489    -312.953
  C     -153.644     358.712    -313.473
  O     -153.200     362.530    -313.407
  O     -154.515     362.350    -315.601
  H     -158.383     357.762    -314.564
  H     -153.642     362.564    -315.982
  H     -151.682     359.253    -312.855
  H     -153.916     359.697    -313.836
  H     -156.029     357.118    -314.948
  H     -156.821     357.302    -312.246
  H     -156.443     359.688    -312.234
  H     -157.936     359.715    -314.921
  H     -150.841     355.841    -311.641
  H     -156.469     361.705    -315.345
  H     -150.182     357.422    -311.936
  H     -157.661     361.967    -314.054
  P     -158.834     359.640    -310.812
  C     -159.547     362.098    -310.567
  O     -158.564     361.123    -310.258
  O     -158.140     358.554    -310.064
  O     -160.429     359.537    -310.759
  H     -160.722     358.616    -310.970
  H     -159.260     363.040    -310.148
  H     -160.489     361.798    -310.157
  H     -159.634     362.192    -311.629

 6  7  8  9  10  11  12  13  14  15  16  26  30  31  32  33  35 0
 6-311+G(2d,p)
 ****
 37  38 0
 6-311+G(2d,p)
 ****
 1  2  3  4  5  17  18  19  20  21  22  23  24  25 0
 3-21G
 ****
 27  28  29  34  36  39  40  41  42  43  44  45  46 0
 3-21G
 ****


