%nproc=1
%NoSave
%Mem=1900MB
#P OB98/GEN NMR

erre ene a

0 1
  C     -101.615     135.147     139.787
  O     -100.335     134.514     139.715
  P     -100.239     132.992     139.222
  C      -99.312     132.066     141.449
  O     -100.368     132.022     140.496
  C      -99.266     130.762     142.275
  O     -100.404     130.709     143.177
  C      -99.298     129.499     141.398
  O      -98.253     128.572     141.713
  C     -100.718     128.985     141.567
  O     -100.837     127.592     141.305
  C     -101.079     129.452     142.984
  N     -102.531     129.562     143.169
  C     -103.244     128.371     143.233
  O     -102.726     127.265     143.057
  N     -104.599     128.493     143.432
  C     -105.293     129.660     143.503
  O     -106.512     129.720     143.638
  C     -104.491     130.893     143.367
  C     -103.168     130.785     143.214
  O      -99.100     132.678     138.307
  O     -101.646     132.767     138.479
  H     -101.745     127.306     141.548
  H     -101.480     132.212     137.688
  H     -105.127     127.638     143.492
  H     -105.016     131.841     143.396
  H     -102.554     131.673     143.103
  H     -100.709     128.741     143.737
  H     -101.365     129.504     140.850
  H      -99.126     129.736     140.340
  H      -98.347     130.792     142.872
  H      -99.466     132.903     142.127
  H      -98.364     132.246     140.936
  P      -97.031     128.219     140.749
  C      -98.239     126.477     139.249
  O      -97.620     127.751     139.332
  O      -95.984     127.321     141.318
  O      -96.400     129.662     140.423
  H      -95.427     129.591     140.421
  H      -98.239     126.160     138.196
  H      -99.269     126.542     139.604
  H      -97.692     125.727     139.838
  H     -101.497     136.153     140.132
  H     -102.242     134.608     140.466
  H     -102.065     135.154     138.816

 3  4  5  6  7  8  9  10  11  12  13  23  28  29  30  31  32 0
 6-311+G(2d,p)
 ****
 33  34 0
 6-311+G(2d,p)
 ****
 1  2  14  15  16  17  18  19  20  21  22  24  25  26  27 0
 3-21G
 ****
 35  36  37  38  39  40  41  42  43  44  45 0
 3-21G
 ****


