%nproc=1
%NoSave
%Mem=1900MB
#P OB98/GEN NMR

erre ene a

0 1
  C      330.544    -636.904    -528.675
  O      329.480    -637.811    -528.950
  P      328.040    -637.515    -528.302
  C      327.920    -639.809    -527.106
  O      327.294    -638.915    -528.044
  C      326.983    -640.994    -526.803
  O      325.862    -640.521    -526.010
  C      326.361    -641.673    -528.044
  O      327.080    -642.733    -528.656
  C      325.098    -642.282    -527.436
  O      325.421    -643.553    -526.830
  C      324.681    -641.285    -526.371
  N      320.271    -639.110    -524.990
  C      321.099    -639.958    -524.344
  N      322.253    -640.492    -524.786
  C      322.541    -640.059    -526.030
  C      321.793    -639.185    -526.809
  C      320.585    -638.709    -526.235
  N      319.748    -637.851    -526.899
  N      322.404    -638.983    -528.023
  C      323.483    -639.724    -527.980
  N      323.632    -640.389    -526.791
  O      327.225    -636.469    -528.988
  O      328.421    -637.054    -526.817
  H      324.660    -643.800    -526.291
  H      327.807    -636.336    -526.535
  H      320.789    -640.254    -523.348
  H      324.204    -639.824    -528.802
  H      324.326    -641.778    -525.454
  H      324.341    -642.491    -528.199
  H      326.089    -640.922    -528.793
  H      327.530    -641.738    -526.226
  H      328.142    -639.272    -526.184
  H      318.878    -637.591    -526.448
  H      319.958    -637.591    -527.855
  H      328.866    -640.112    -527.543
  P      328.271    -642.434    -529.696
  C      326.419    -642.627    -531.533
  O      327.727    -642.930    -531.133
  O      329.594    -643.008    -529.308
  O      328.242    -640.851    -529.827
  H      327.455    -640.489    -530.277
  H      326.315    -642.855    -532.598
  H      326.192    -641.565    -531.374
  H      325.705    -643.243    -530.976
  H      331.432    -637.234    -529.173
  H      330.719    -636.869    -527.620
  H      330.280    -635.928    -529.025

 3  4  5  6  7  8  9  10  11  12  22  25  29  30  31  32 0
 6-311+G(2d,p)
 ****
 33  36  37 0
 6-311+G(2d,p)
 ****
 1  2  13  14  15  16  17  18  19  20  21  23  24  26 0
 3-21G
 ****
 27  28  34  35  38  39  40  41  42  43  44  45  46  47  48 0
 3-21G
 ****


