%nproc=1
%NoSave
%Mem=1900MB
#P OB98/GEN NMR

erre ene a

0 1
  C      116.181    -213.741    -249.341
  O      116.912    -213.893    -248.138
  H      115.720    -214.700    -249.591
  H      116.839    -213.443    -250.162
  H      115.393    -212.996    -249.206
  P      117.905    -212.710    -247.704
  C      119.906    -214.270    -248.187
  O      119.257    -213.443    -247.225
  C      121.097    -215.006    -247.572
  O      122.178    -214.089    -247.297
  C      120.797    -215.667    -246.235
  O      119.891    -216.742    -246.295
  C      122.195    -215.901    -245.681
  O      122.792    -217.089    -246.200
  C      122.948    -214.653    -246.211
  N      123.201    -213.673    -245.166
  C      124.517    -213.570    -244.728
  O      125.435    -214.270    -245.166
  N      124.751    -212.654    -243.738
  C      123.805    -211.883    -243.124
  O      124.078    -211.092    -242.225
  C      122.423    -212.061    -243.601
  C      122.188    -212.935    -244.580
  O      117.357    -211.733    -246.705
  O      118.336    -212.042    -249.093
  H      122.797    -217.003    -247.175
  H      118.751    -211.155    -248.948
  H      125.703    -212.552    -243.421
  H      121.652    -211.472    -243.127
  H      121.179    -213.080    -244.953
  H      123.916    -214.951    -246.638
  H      122.204    -215.987    -244.593
  H      120.329    -214.916    -245.581
  H      121.459    -215.737    -248.305
  H      120.259    -213.625    -248.998
  H      119.186    -214.991    -248.596
  P      118.691    -216.953    -245.266
  C      120.099    -218.501    -243.698
  O      118.925    -218.333    -244.486
  O      117.314    -216.649    -245.765
  O      119.044    -215.859    -244.127
  H      118.195    -215.521    -243.779
  H      120.093    -219.473    -243.252
  H      120.123    -217.756    -242.930
  H      120.964    -218.399    -244.320

 6  7  8  9  10  11  12  13  14  15  16  26  31  32  33  34  35 0
 6-311+G(2d,p)
 ****
 36  37 0
 6-311+G(2d,p)
 ****
 1  2  3  4  5  17  18  19  20  21  22  23  24  25 0
 3-21G
 ****
 27  28  29  30  38  39  40  41  42  43  44  45 0
 3-21G
 ****


