%nproc=1
%NoSave
%Mem=1900MB
#P OB98/GEN NMR

erre ene a

0 1
  C      -94.147      92.561     428.306
  O      -93.712      93.319     429.410
  H      -93.291      92.154     427.755
  H      -94.762      91.729     428.664
  H      -94.752      93.183     427.637
  P      -92.704      94.529     429.094
  C      -94.206      96.309     430.233
  O      -92.950      95.638     430.227
  C      -94.654      96.570     431.668
  O      -94.985      95.328     432.325
  C      -93.605      97.226     432.556
  O      -93.510      98.628     432.322
  C      -94.172      96.924     433.937
  O      -95.213      97.866     434.250
  C      -94.769      95.522     433.747
  N      -93.025      93.089     437.927
  C      -93.876      94.135     437.785
  N      -94.283      94.735     436.645
  C      -93.743      94.137     435.570
  C      -92.866      93.064     435.560
  C      -92.494      92.533     436.809
  N      -91.623      91.478     436.950
  N      -92.523      92.717     434.272
  C      -93.184      93.565     433.509
  N      -93.930      94.447     434.247
  O      -93.324      95.197     427.776
  O      -91.277      94.137     428.884
  H      -94.803      98.756     434.231
  H      -92.599      95.516     427.205
  H      -94.276      94.547     438.698
  H      -93.159      93.568     432.421
  H      -95.755      95.438     434.231
  H      -93.423      96.985     434.734
  H      -92.627      96.739     432.450
  H      -95.570      97.180     431.630
  H      -94.954      95.681     429.733
  H      -91.556      91.024     437.844
  H      -91.237      91.065     436.107
  H      -94.111      97.253     429.689
  P      -92.158      99.364     432.782
  C      -92.085     100.704     430.556
  O      -92.137     100.754     431.978
  O      -91.011      98.504     432.065
  O      -91.951      99.445     434.255
  H      -90.172      98.589     432.559
  H      -92.077     101.700     430.164
  H      -92.943     100.182     430.186
  H      -91.197     100.193     430.249

 6  7  8  9  10  11  12  13  14  15  25  28  32  33  34  35 0
 6-311+G(2d,p)
 ****
 36  39  40 0
 6-311+G(2d,p)
 ****
 1  2  3  4  5  16  17  18  19  20  21  22  23  24 0
 3-21G
 ****
 26  27  29  30  31  37  38  41  42  43  44  45  46  47  48 0
 3-21G
 ****


