%nproc=1
%NoSave
%Mem=1900MB
#P OB98/GEN NMR

erre ene a

0 1
  C      205.170     -48.156     134.469
  O      205.663     -48.001     133.152
  H      204.279     -47.530     134.584
  H      205.916     -47.842     135.204
  H      204.889     -49.197     134.646
  P      207.107     -48.616     132.811
  C      205.961     -50.931     132.756
  O      207.041     -50.154     133.273
  C      206.468     -52.257     132.183
  O      206.991     -52.059     130.854
  C      207.613     -52.870     132.975
  O      207.243     -53.347     134.252
  C      208.237     -53.820     131.966
  O      207.614     -55.101     131.934
  C      207.984     -53.080     130.630
  N      209.211     -52.534     130.066
  C      209.861     -53.336     129.133
  O      209.462     -54.454     128.803
  N      211.021     -52.828     128.618
  C      211.605     -51.647     128.974
  O      212.671     -51.269     128.504
  C      210.883     -50.855     129.981
  C      209.737     -51.325     130.473
  O      208.280     -47.868     133.367
  O      207.108     -48.719     131.215
  H      206.659     -54.951     131.796
  H      208.024     -48.829     130.865
  H      211.501     -53.392     127.934
  H      211.320     -49.913     130.290
  H      209.186     -50.758     131.222
  H      207.555     -53.771     129.892
  H      209.296     -53.985     132.176
  H      208.357     -52.083     133.156
  H      205.619     -52.948     132.117
  H      205.488     -50.352     131.956
  H      205.223     -51.109     133.543
  P      208.288     -53.578     135.438
  C      208.625     -51.026     135.789
  O      209.239     -52.286     135.529
  O      208.913     -54.935     135.530
  O      207.341     -53.395     136.732
  H      207.669     -54.004     137.423
  H      209.375     -50.264     135.822
  H      208.115     -51.065     136.729
  H      207.924     -50.804     135.012

 6  7  8  9  10  11  12  13  14  15  16  26  31  32  33  34  35 0
 6-311+G(2d,p)
 ****
 36  37 0
 6-311+G(2d,p)
 ****
 1  2  3  4  5  17  18  19  20  21  22  23  24  25 0
 3-21G
 ****
 27  28  29  30  38  39  40  41  42  43  44  45 0
 3-21G
 ****


