%nproc=1
%NoSave
%Mem=1900MB
#P OB98/GEN NMR

erre ene a

0 1
  C       58.449     423.117     147.068
  O       58.456     422.797     145.695
  H       59.165     422.473     147.582
  H       57.453     422.935     147.481
  H       58.730     424.160     147.238
  P       57.866     423.857     144.654
  C       56.548     422.223     143.152
  O       56.473     423.286     144.093
  C       55.429     421.203     143.360
  O       55.467     420.710     144.718
  C       54.037     421.806     143.147
  O       53.588     421.785     141.803
  C       53.167     420.913     144.028
  O       52.710     419.757     143.311
  C       54.119     420.500     145.160
  N       51.133     421.152     149.259
  C       50.897     420.395     148.127
  N       49.702     419.770     148.073
  N       51.751     420.287     147.144
  C       52.858     421.048     147.296
  C       53.191     421.853     148.365
  C       52.276     421.911     149.482
  O       52.444     422.553     150.511
  N       54.379     422.510     148.147
  C       54.715     422.169     146.919
  N       53.866     421.222     146.393
  O       58.835     423.709     143.382
  O       57.831     425.279     145.129
  H       51.996     420.042     142.705
  H       58.905     424.567     142.926
  H       50.452     421.175     149.995
  H       55.578     422.540     146.383
  H       54.021     419.433     145.393
  H       52.278     421.448     144.366
  H       48.976     419.887     148.759
  H       53.992     422.824     143.543
  H       49.413     419.361     147.182
  H       55.596     420.341     142.702
  H       57.518     421.748     143.297
  H       56.523     422.616     142.131
  P       53.542     423.124     140.933
  C       51.307     422.456     139.728
  O       52.030     423.392     140.496
  O       54.250     422.691     139.565
  O       54.200     424.315     141.553
  H       55.183     422.974     139.557
  H       50.321     422.829     139.547
  H       51.246     421.529     140.260
  H       51.806     422.299     138.794

 6  7  8  9  10  11  12  13  14  15  26  29  33  34 0
 6-311+G(2d,p)
 ****
 36  38  39  40  41 0
 6-311+G(2d,p)
 ****
 1  2  3  4  5  16  17  18  19  20  21  22  23  24  25 0
 3-21G
 ****
 27  28  30  31  32  35  37  42  43  44  45  46  47 0
 3-21G
 ****
 48  49 0
 3-21G
 ****


