%nproc=1
%NoSave
%Mem=1900MB
#P OB98/GEN NMR

erre ene a

0 1
  C      378.680    -201.908      33.685
  O      378.883    -202.116      32.280
  P      378.475    -200.923      31.292
  C      380.735    -199.639      31.621
  O      379.323    -199.652      31.776
  C      381.147    -198.545      30.639
  O      380.622    -197.261      31.055
  C      382.649    -198.339      30.524
  O      383.253    -199.386      29.767
  C      382.707    -196.963      29.875
  O      382.487    -197.069      28.460
  C      381.512    -196.249      30.541
  N      381.917    -195.313      31.585
  C      382.673    -194.212      31.151
  O      383.005    -194.048      29.985
  N      383.056    -193.337      32.132
  C      382.786    -193.453      33.467
  O      383.138    -192.620      34.299
  C      382.031    -194.649      33.861
  C      381.636    -195.511      32.920
  O      376.982    -200.615      31.777
  O      378.610    -201.287      29.853
  H      376.868    -200.726      32.734
  H      382.540    -196.156      28.099
  H      383.589    -192.532      31.840
  H      381.818    -194.789      34.914
  H      381.088    -196.407      33.193
  H      380.940    -195.690      29.790
  H      383.672    -196.477      30.014
  H      383.101    -198.301      31.524
  H      380.718    -198.791      29.662
  H      381.075    -200.608      31.239
  H      381.197    -199.496      32.602
  P      384.741    -199.815      30.191
  C      383.955    -200.777      32.504
  O      384.759    -199.856      31.797
  O      385.567    -198.495      29.837
  O      385.230    -201.058      29.519
  H      385.125    -197.682      30.113
  H      384.359    -200.885      33.508
  H      383.951    -201.754      32.011
  H      382.932    -200.392      32.566
  H      378.993    -202.778      34.223
  H      377.642    -201.727      33.872
  H      379.253    -201.064      34.007

 3  4  5  6  7  8  9  10  11  12  13  24  28  29  30  31  32 0
 6-311+G(2d,p)
 ****
 33  34 0
 6-311+G(2d,p)
 ****
 1  2  14  15  16  17  18  19  20  21  22  23  25  26  27 0
 3-21G
 ****
 35  36  37  38  39  40  41  42  43  44  45 0
 3-21G
 ****


