%nproc=1
%NoSave
%Mem=1900MB
#P OB98/GEN NMR

erre ene a

0 1
  C     -296.620     -41.619    -803.401
  O     -295.612     -42.606    -803.515
  H     -297.575     -42.113    -803.197
  H     -296.720     -41.054    -804.332
  H     -296.393     -40.937    -802.577
  P     -294.147     -42.143    -803.972
  C     -292.917     -43.373    -802.055
  O     -293.155     -43.289    -803.455
  C     -292.355     -44.748    -801.700
  O     -293.356     -45.766    -801.919
  C     -291.160     -45.151    -802.551
  O     -289.992     -44.464    -802.130
  C     -291.147     -46.651    -802.342
  O     -290.542     -47.003    -801.092
  C     -292.661     -46.971    -802.339
  N     -293.141     -47.441    -803.629
  C     -292.700     -48.704    -804.039
  O     -291.938     -49.358    -803.311
  N     -293.104     -49.175    -805.258
  C     -293.897     -48.476    -806.001
  N     -294.258     -49.002    -807.197
  C     -294.409     -47.146    -805.610
  C     -293.996     -46.691    -804.419
  O     -293.731     -40.750    -803.601
  O     -294.162     -42.363    -805.558
  H     -290.683     -47.958    -800.982
  H     -294.473     -41.553    -806.015
  H     -295.072     -46.596    -806.251
  H     -294.323     -45.724    -804.048
  H     -292.889     -47.740    -801.582
  H     -290.597     -47.160    -803.133
  H     -291.363     -44.954    -803.603
  H     -292.100     -44.751    -800.628
  H     -293.878     -49.918    -807.432
  H     -293.875     -43.211    -801.556
  H     -294.940     -48.589    -807.814
  H     -292.222     -42.592    -801.733
  P     -288.659     -44.514    -803.022
  C     -287.617     -42.170    -802.704
  O     -287.618     -43.532    -802.274
  O     -288.849     -44.266    -804.475
  O     -288.055     -45.968    -802.695
  H     -288.574     -46.675    -803.152
  H     -286.893     -41.619    -802.142
  H     -288.587     -41.746    -802.548
  H     -287.371     -42.125    -803.744

 6  7  8  9  10  11  12  13  14  15  16  26  30  31  32  33  35 0
 6-311+G(2d,p)
 ****
 37  38 0
 6-311+G(2d,p)
 ****
 1  2  3  4  5  17  18  19  20  21  22  23  24  25 0
 3-21G
 ****
 27  28  29  34  36  39  40  41  42  43  44  45  46 0
 3-21G
 ****


