%nproc=1
%NoSave
%Mem=1900MB
#P OB98/GEN NMR

erre ene a

0 1
  C      889.445    -897.560      85.299
  O      890.709    -898.170      85.208
  H      889.180    -897.440      86.352
  H      888.682    -898.200      84.833
  H      889.447    -896.590      84.833
  P      891.306    -898.500      83.764
  C      893.347    -896.910      83.892
  O      892.052    -897.150      83.302
  C      893.387    -895.620      84.671
  O      892.452    -895.680      85.757
  C      894.786    -895.310      85.270
  O      895.103    -893.940      85.007
  C      894.552    -895.500      86.761
  O      895.488    -894.770      87.544
  C      893.084    -895.090      86.893
  N      892.526    -895.550      88.163
  C      892.547    -894.610      89.200
  O      893.007    -893.470      89.027
  N      892.056    -894.980      90.432
  C      891.667    -896.180      90.602
  N      891.199    -896.500      91.875
  C      891.635    -897.190      89.572
  C      892.086    -896.830      88.370
  O      890.337    -899.050      82.773
  O      892.538    -899.490      84.041
  H      895.602    -893.870      87.153
  H      892.742    -900.000      83.216
  H      891.306    -898.230      89.765
  H      892.104    -897.520      87.503
  H      892.973    -893.990      86.819
  H      894.677    -896.560      87.012
  H      895.583    -895.960      84.887
  H      893.069    -894.810      84.003
  H      891.239    -895.750      92.564
  H      894.101    -896.920      83.059
  H      890.898    -897.420      92.161
  H      893.563    -897.770      84.535
  P      896.177    -893.700      83.817
  C      895.287    -891.550      82.644
  O      895.429    -892.970      82.604
  O      896.499    -895.170      83.292
  O      897.422    -893.000      84.299
  H      897.412    -895.420      83.538
  H      894.769    -891.218      81.768
  H      896.255    -891.096      82.680
  H      894.730    -891.272      83.514

 6  7  8  9  10  11  12  13  14  15  16  26  30  31  32  33  35 0
 6-311+G(2d,p)
 ****
 37  38 0
 6-311+G(2d,p)
 ****
 1  2  3  4  5  17  18  19  20  21  22  23  24  25 0
 3-21G
 ****
 27  28  29  34  36  39  40  41  42  43  44  45  46 0
 3-21G
 ****


