%nproc=1
%NoSave
%Mem=1900MB
#P OB98/GEN NMR

erre ene a

0 1
  C      229.544    -593.255     138.079
  O      230.154    -594.103     139.031
  P      231.709    -593.937     139.394
  C      233.883    -593.665     138.033
  O      232.459    -593.792     137.982
  C      234.551    -594.690     137.115
  O      233.897    -594.717     135.825
  C      236.021    -594.396     136.828
  O      236.826    -594.769     137.931
  C      236.247    -595.231     135.570
  O      236.497    -596.612     135.897
  C      234.884    -595.088     134.838
  N      234.944    -594.129     133.739
  C      235.845    -594.422     132.720
  O      236.566    -595.426     132.791
  N      235.959    -593.550     131.666
  C      235.234    -592.467     131.655
  N      235.405    -591.638     130.578
  C      234.292    -592.109     132.730
  C      234.199    -592.972     133.736
  O      232.267    -594.975     140.312
  O      231.786    -592.457     140.001
  H      237.295    -596.614     136.480
  H      231.406    -592.413     140.907
  H      233.726    -591.185     132.670
  H      233.530    -592.786     134.559
  H      234.566    -596.060     134.437
  H      237.097    -594.877     134.985
  H      236.146    -593.337     136.583
  H      234.442    -595.680     137.570
  H      236.077    -591.901     129.875
  H      234.210    -593.834     139.067
  H      234.922    -590.746     130.486
  H      234.171    -592.640     137.750
  P      238.404    -594.450     137.909
  C      240.272    -594.734     136.179
  O      239.038    -595.235     136.677
  O      239.103    -594.619     139.223
  O      238.466    -592.916     137.437
  H      239.104    -592.439     137.990
  H      240.757    -595.520     135.588
  H      240.937    -594.442     137.004
  H      240.088    -593.863     135.543
  H      228.512    -593.519     137.975
  H      230.037    -593.365     137.136
  H      229.621    -592.239     138.405

 3  4  5  6  7  8  9  10  11  12  13  23  27  28  29  30  32 0
 6-311+G(2d,p)
 ****
 34  35 0
 6-311+G(2d,p)
 ****
 1  2  14  15  16  17  18  19  20  21  22  24  25  26 0
 3-21G
 ****
 31  33  36  37  38  39  40  41  42  43  44  45  46 0
 3-21G
 ****


