%nproc=1
%NoSave
%Mem=1900MB
#P OB98/GEN NMR

erre ene a

0 1
  C     -633.534     226.937     354.726
  O     -632.958     225.861     354.013
  H     -633.127     227.875     354.335
  H     -633.281     226.858     355.787
  H     -634.622     226.947     354.601
  P     -633.580     224.404     354.252
  C     -633.258     224.307     351.672
  O     -633.360     223.582     352.889
  C     -632.041     223.833     350.881
  O     -630.837     224.315     351.546
  C     -631.920     222.307     350.775
  O     -631.389     221.980     349.489
  C     -630.892     221.966     351.838
  O     -630.223     220.733     351.623
  C     -629.970     223.184     351.744
  N     -629.142     223.356     352.939
  C     -627.765     223.237     352.788
  O     -627.189     223.084     351.711
  N     -627.036     223.303     353.949
  C     -627.539     223.448     355.208
  O     -626.835     223.484     356.211
  C     -629.001     223.565     355.302
  C     -629.722     223.510     354.183
  O     -635.158     224.684     354.265
  O     -633.116     223.701     355.484
  H     -635.460     224.881     355.170
  H     -629.671     220.563     352.421
  H     -626.039     223.219     353.856
  H     -629.432     223.669     356.291
  H     -630.810     223.567     354.219
  H     -629.322     223.107     350.863
  H     -631.376     221.918     352.821
  H     -632.865     221.769     350.931
  H     -632.064     224.291     349.884
  H     -633.140     225.374     351.897
  H     -634.175     224.168     351.091
  P     -632.427     221.503     348.363
  C     -631.151     222.814     346.484
  O     -631.619     221.566     346.978
  O     -633.416     222.751     348.302
  O     -633.066     220.190     348.676
  H     -632.970     223.604     348.451
  H     -630.639     222.661     345.557
  H     -630.480     223.250     347.195
  H     -631.982     223.470     346.329

 6  7  8  9  10  11  12  13  14  15  16  27  31  32  33  34  35 0
 6-311+G(2d,p)
 ****
 36  37 0
 6-311+G(2d,p)
 ****
 1  2  3  4  5  17  18  19  20  21  22  23  24  25 0
 3-21G
 ****
 26  28  29  30  38  39  40  41  42  43  44  45 0
 3-21G
 ****


