%nproc=1
%NoSave
%Mem=1900MB
#P OB98/GEN NMR

erre ene a

0 1
  C     -200.415     105.669      97.564
  O     -201.405     105.986      98.553
  P     -202.872     105.366      98.355
  C     -204.117     107.663      98.150
  O     -203.887     106.480      98.901
  C     -204.509     108.807      99.082
  O     -203.380     109.215      99.894
  C     -204.966     110.070      98.361
  O     -206.275     109.916      97.831
  C     -204.846     111.098      99.477
  O     -205.986     111.032     100.348
  C     -203.583     110.609     100.225
  N     -202.398     111.407      99.930
  C     -202.357     112.671     100.515
  O     -203.264     113.116     101.218
  N     -201.242     113.418     100.245
  C     -200.203     113.043      99.443
  O     -199.221     113.750      99.246
  C     -200.326     111.720      98.813
  C     -201.401     110.973      99.078
  O     -202.878     104.231      99.479
  O     -203.117     104.884      96.964
  H     -202.387     104.482     100.279
  H     -206.014     110.119     100.697
  H     -201.187     114.330     100.670
  H     -199.533     111.400      98.149
  H     -201.511     109.994      98.622
  H     -203.752     110.643     101.309
  H     -204.781     112.124      99.097
  H     -204.264     110.312      97.554
  H     -205.304     108.444      99.752
  H     -204.923     107.495      97.428
  H     -203.212     107.904      97.583
  P     -206.558     110.588      96.395
  C     -207.938     112.655      97.205
  O     -207.924     111.412      96.542
  O     -206.962     109.305      95.528
  O     -205.396     111.357      95.856
  H     -207.573     108.709      95.992
  H     -208.837     113.204      96.904
  H     -207.063     113.255      96.948
  H     -207.970     112.497      98.285
  H     -199.491     106.145      97.819
  H     -200.743     106.017      96.607
  H     -200.273     104.609      97.529

 3  4  5  6  7  8  9  10  11  12  13  24  28  29  30  31  32 0
 6-311+G(2d,p)
 ****
 33  34 0
 6-311+G(2d,p)
 ****
 1  2  14  15  16  17  18  19  20  21  22  23  25  26  27 0
 3-21G
 ****
 35  36  37  38  39  40  41  42  43  44  45 0
 3-21G
 ****


