%nproc=1
%NoSave
%Mem=1900MB
#P OB98/GEN NMR

erre ene a

0 1
  C       12.116     220.313     437.320
  O       12.726     221.371     436.614
  P       11.953     222.746     436.344
  C       12.899     224.435     438.045
  O       11.856     223.508     437.758
  C       12.343     225.636     438.820
  O       11.217     226.193     438.074
  C       11.837     225.259     440.227
  O       12.379     226.054     441.285
  C       10.326     225.321     440.069
  O        9.628     225.477     441.289
  C       10.169     226.438     439.035
  N        8.844     226.454     438.421
  C        7.833     227.118     439.108
  O        7.987     227.699     440.180
  N        6.589     227.055     438.550
  C        6.235     226.310     437.466
  O        5.077     226.220     437.079
  C        7.333     225.595     436.802
  C        8.573     225.714     437.285
  O       10.651     222.619     435.628
  O       13.042     223.626     435.568
  H        8.708     225.726     441.082
  H       13.867     223.787     436.060
  H        5.848     227.532     439.039
  H        7.083     224.989     435.946
  H        9.407     225.201     436.817
  H       10.355     227.418     439.474
  H        9.998     224.371     439.631
  H       12.133     224.233     440.491
  H       13.132     226.391     438.874
  H       13.330     224.785     437.106
  H       13.694     223.938     438.608
  P       12.716     225.522     442.754
  C       15.105     224.539     442.471
  O       13.725     224.289     442.620
  O       11.532     225.274     443.629
  O       13.639     226.678     443.368
  H       13.526     226.704     444.334
  H       15.555     223.713     441.911
  H       15.572     224.586     443.459
  H       15.286     225.475     441.935
  H       12.798     219.491     437.390
  H       11.233     220.001     436.802
  H       11.854     220.644     438.303

 3  4  5  6  7  8  9  10  11  12  13  23  28  29  30  31  32 0
 6-311+G(2d,p)
 ****
 33  34 0
 6-311+G(2d,p)
 ****
 1  2  14  15  16  17  18  19  20  21  22  24  25  26  27 0
 3-21G
 ****
 35  36  37  38  39  40  41  42  43  44  45 0
 3-21G
 ****


