%nproc=1
%NoSave
%Mem=1900MB
#P OB98/GEN NMR

erre ene a

0 1
  C        1.003     136.777    1053.907
  O        2.205     136.815    1054.643
  H        0.285     137.452    1054.380
  H        0.592     135.764    1053.921
  H        1.169     137.102    1052.877
  P        3.465     136.012    1054.041
  C        3.357     133.973    1055.646
  O        3.195     134.458    1054.316
  C        2.953     132.501    1055.728
  O        3.493     131.795    1054.580
  C        3.452     131.795    1056.994
  O        2.442     130.889    1057.448
  C        4.660     131.003    1056.512
  O        4.939     129.874    1057.331
  C        4.252     130.676    1055.065
  N        5.416     130.406    1054.231
  C        6.107     129.208    1054.477
  O        5.725     128.456    1055.382
  N        7.236     128.934    1053.750
  C        7.688     129.816    1052.912
  N        8.831     129.494    1052.244
  C        7.036     131.106    1052.667
  C        5.912     131.336    1053.344
  O        4.649     136.367    1055.062
  O        3.816     136.344    1052.629
  H        5.475     129.243    1056.808
  H        5.509     136.394    1054.607
  H        7.468     131.819    1051.971
  H        5.357     132.261    1053.241
  H        3.591     129.790    1055.048
  H        5.547     131.649    1056.512
  H        3.706     132.489    1057.807
  H        1.853     132.440    1055.657
  H        9.260     128.598    1052.461
  H        2.723     134.556    1056.317
  H        9.295     130.116    1051.603
  H        4.405     134.102    1055.949
  P        1.366     131.472    1058.486
  C        2.368     130.239    1060.543
  O        2.034     131.483    1059.941
  O        0.275     130.302    1058.576
  O        0.750     132.769    1058.046
  H       -0.555     130.577    1058.118
  H        2.802     130.414    1061.505
  H        3.070     129.720    1059.924
  H        1.483     129.647    1060.653

 6  7  8  9  10  11  12  13  14  15  16  26  30  31  32  33  35 0
 6-311+G(2d,p)
 ****
 37  38 0
 6-311+G(2d,p)
 ****
 1  2  3  4  5  17  18  19  20  21  22  23  24  25 0
 3-21G
 ****
 27  28  29  34  36  39  40  41  42  43  44  45  46 0
 3-21G
 ****


