%nproc=1
%NoSave
%Mem=1900MB
#P OB98/GEN NMR

erre ene a

0 1
  C      -96.411     -87.150     -86.431
  O      -96.411     -88.477     -86.923
  H      -96.926     -87.136     -85.468
  H      -96.939     -86.486     -87.121
  H      -95.387     -86.798     -86.285
  P      -95.748     -88.761     -88.352
  C      -97.938     -89.822     -89.219
  O      -96.959     -88.807     -89.404
  C      -98.213     -90.539     -90.537
  O      -98.762     -89.623     -91.504
  C      -96.975     -91.158     -91.186
  O      -96.672     -92.409     -90.592
  C      -97.453     -91.293     -92.621
  O      -98.338     -92.425     -92.733
  C      -98.246     -89.987     -92.814
  N      -95.564     -88.208     -96.738
  C      -96.097     -89.464     -96.527
  N      -95.856     -90.386     -97.484
  N      -96.793     -89.791     -95.470
  C      -96.895     -88.791     -94.565
  C      -96.396     -87.510     -94.652
  C      -95.684     -87.142     -95.859
  O      -95.217     -86.031     -96.096
  N      -96.618     -86.803     -93.498
  C      -97.297     -87.638     -92.735
  N      -97.484     -88.864     -93.333
  O      -94.832     -89.945     -88.429
  O      -94.999     -87.396     -88.718
  H      -97.888     -93.183     -92.318
  H      -94.070     -87.413     -88.421
  H      -95.030     -88.016     -97.569
  H      -97.679     -87.410     -91.747
  H      -99.105     -90.122     -93.481
  H      -96.636     -91.451     -93.327
  H      -95.206     -90.239     -98.242
  H      -96.122     -90.472     -91.158
  H      -96.189     -91.328     -97.319
  H      -98.979     -91.304     -90.349
  H      -98.848     -89.338     -88.851
  H      -97.601     -90.546     -88.470
  P      -95.155     -92.859     -90.308
  C      -95.110     -93.861     -92.693
  O      -94.479     -93.006     -91.754
  O      -95.011     -94.052     -89.429
  O      -94.452     -91.541     -89.746
  H      -94.577     -91.423     -88.771
  H      -94.552     -93.861     -93.606
  H      -96.104     -93.512     -92.882
  H      -95.150     -94.855     -92.299

 6  7  8  9  10  11  12  13  14  15  26  29  33  34 0
 6-311+G(2d,p)
 ****
 36  38  39  40  41 0
 6-311+G(2d,p)
 ****
 1  2  3  4  5  16  17  18  19  20  21  22  23  24  25 0
 3-21G
 ****
 27  28  30  31  32  35  37  42  43  44  45  46  47 0
 3-21G
 ****
 48  49 0
 3-21G
 ****


