%nproc=1
%NoSave
%Mem=1900MB
#P OB98/GEN NMR

erre ene a

0 1
  C      -50.380     113.899    -747.094
  O      -51.247     114.243    -746.033
  P      -52.166     115.563    -746.141
  C      -53.893     114.856    -744.371
  O      -52.885     115.797    -744.721
  C      -54.600     115.264    -743.072
  O      -53.772     114.956    -741.913
  C      -54.870     116.760    -742.981
  O      -55.929     117.177    -743.825
  C      -55.148     116.908    -741.483
  O      -56.496     116.530    -741.177
  C      -54.142     115.883    -740.886
  N      -52.974     116.556    -740.295
  C      -53.205     117.366    -739.173
  O      -54.369     117.555    -738.788
  N      -52.140     117.908    -738.535
  C      -50.950     117.790    -739.029
  N      -49.913     118.329    -738.320
  C      -50.670     117.090    -740.302
  C      -51.723     116.474    -740.862
  O      -53.072     115.611    -747.330
  O      -51.095     116.758    -746.198
  H      -51.321     117.354    -746.952
  H      -57.079     117.181    -741.622
  H      -49.672     117.065    -740.717
  H      -51.619     115.908    -741.790
  H      -54.650     115.292    -740.099
  H      -55.009     117.941    -741.138
  H      -53.957     117.332    -743.236
  H      -55.535     114.699    -742.989
  H      -50.137     118.792    -737.457
  H      -53.429     113.856    -744.229
  H      -48.949     118.019    -738.446
  H      -54.617     114.773    -745.185
  P      -55.635     118.383    -744.841
  C      -57.845     118.141    -746.199
  O      -57.058     118.952    -745.339
  O      -55.062     117.629    -746.156
  O      -54.674     119.401    -744.332
  H      -54.351     118.178    -746.556
  H      -58.882     118.486    -746.139
  H      -57.814     117.086    -745.892
  H      -57.493     118.237    -747.227
  H      -49.854     113.000    -746.848
  H      -49.678     114.691    -747.252
  H      -50.951     113.745    -747.986

 3  4  5  6  7  8  9  10  11  12  13  24  27  28  29  30  32 0
 6-311+G(2d,p)
 ****
 34  35 0
 6-311+G(2d,p)
 ****
 1  2  14  15  16  17  18  19  20  21  22  23  25  26 0
 3-21G
 ****
 31  33  36  37  38  39  40  41  42  43  44  45  46 0
 3-21G
 ****


