%nproc=1
%NoSave
%Mem=1900MB
#P OB98/GEN NMR

erre ene a

0 1
  C      709.358      -6.452    -113.999
  O      709.724      -5.083    -113.908
  P      711.021      -4.694    -113.039
  C      709.523      -4.396    -110.930
  O      710.670      -4.993    -111.496
  C      709.923      -3.373    -109.859
  O      708.743      -2.628    -109.438
  C      710.555      -3.993    -108.600
  O      711.538      -3.072    -108.106
  C      709.374      -4.045    -107.641
  O      709.763      -4.156    -106.276
  C      708.678      -2.720    -107.999
  N      707.299      -2.654    -107.521
  C      706.920      -1.525    -106.798
  O      707.683      -0.587    -106.546
  N      705.640      -1.521    -106.309
  C      704.751      -2.561    -106.382
  O      703.659      -2.539    -105.818
  C      705.202      -3.731    -107.154
  C      706.428      -3.730    -107.672
  O      711.049      -3.097    -113.115
  O      712.298      -5.302    -113.520
  H      709.999      -5.089    -106.122
  H      711.702      -2.804    -113.784
  H      705.354      -0.709    -105.791
  H      704.516      -4.559    -107.251
  H      706.798      -4.587    -108.235
  H      709.248      -1.881    -107.597
  H      708.746      -4.905    -107.893
  H      711.002      -4.977    -108.773
  H      710.625      -2.650    -110.320
  H      708.909      -5.170    -110.460
  H      708.930      -3.922    -111.716
  P      712.917      -3.677    -107.540
  C      712.096      -4.028    -105.087
  O      712.540      -4.607    -106.293
  O      713.559      -2.366    -106.863
  O      713.781      -4.289    -108.601
  H      712.907      -1.851    -106.361
  H      711.500      -3.124    -105.260
  H      712.958      -3.773    -104.454
  H      711.470      -4.757    -104.545
  H      708.482      -6.547    -114.606
  H      709.156      -6.833    -113.020
  H      710.160      -7.007    -114.440

 3  4  5  6  7  8  9  10  11  12  13  23  28  29  30  31  32 0
 6-311+G(2d,p)
 ****
 33  34 0
 6-311+G(2d,p)
 ****
 1  2  14  15  16  17  18  19  20  21  22  24  25  26 0
 3-21G
 ****
 27  35  36  37  38  39  40  41  42  43  44  45 0
 3-21G
 ****


