%nproc=1
%NoSave
%Mem=1900MB
#P OB98/GEN NMR

erre ene a

0 1
  C     -497.436     122.838     142.239
  O     -497.010     122.994     143.578
  H     -497.680     121.787     142.069
  H     -496.638     123.131     141.551
  H     -498.328     123.444     142.052
  P     -496.621     124.481     144.038
  C     -494.298     123.509     144.694
  O     -495.018     124.548     144.044
  C     -493.155     123.041     143.802
  O     -493.688     122.447     142.595
  C     -492.239     124.161     143.331
  O     -491.316     124.562     144.327
  C     -491.584     123.517     142.119
  O     -490.474     122.693     142.502
  C     -492.713     122.654     141.547
  N     -494.138     121.922     136.700
  C     -493.610     121.085     137.620
  N     -493.269     121.357     138.899
  C     -493.552     122.634     139.205
  C     -494.095     123.601     138.371
  C     -494.400     123.199     137.061
  N     -494.913     124.055     136.114
  N     -494.204     124.805     139.035
  C     -493.743     124.573     140.246
  N     -493.343     123.275     140.397
  O     -497.007     124.489     145.593
  O     -497.304     125.576     143.290
  H     -490.242     122.163     141.714
  H     -497.871     124.927     145.711
  H     -493.428     120.069     137.284
  H     -493.672     125.307     141.041
  H     -492.360     121.665     141.230
  H     -491.212     124.274     141.431
  H     -492.836     125.018     142.991
  H     -492.584     122.271     144.338
  H     -494.975     122.670     144.889
  H     -493.916     123.886     145.647
  H     -495.041     123.719     135.174
  H     -495.003     125.038     136.340
  P     -491.322     126.104     144.772
  C     -489.367     126.579     143.111
  O     -490.661     126.944     143.578
  O     -490.226     126.170     145.934
  O     -492.647     126.612     145.226
  H     -490.502     126.814     146.617
  H     -489.076     127.236     142.318
  H     -489.389     125.572     142.750
  H     -488.664     126.655     143.914

 6  7  8  9  10  11  12  13  14  15  25  28  32  33  34  35 0
 6-311+G(2d,p)
 ****
 36  37  40 0
 6-311+G(2d,p)
 ****
 1  2  3  4  5  16  17  18  19  20  21  22  23  24 0
 3-21G
 ****
 26  27  29  30  31  38  39 41  42  43  44  45  46  47  48 0
 3-21G
 ****


