%nproc=1
%NoSave
%Mem=1900MB
#P OB98/GEN NMR

erre ene a

0 1
  C     -166.008    -697.503     923.396
  O     -166.444    -696.166     923.698
  P     -165.522    -695.241     924.637
  C     -163.912    -694.180     922.869
  O     -164.069    -695.104     923.941
  C     -163.131    -692.945     923.337
  O     -161.821    -693.304     923.811
  C     -162.893    -691.938     922.231
  O     -164.024    -691.098     922.041
  C     -161.742    -691.139     922.823
  O     -162.238    -690.177     923.776
  C     -160.906    -692.203     923.506
  N     -156.299    -691.184     921.534
  C     -157.153    -690.426     922.264
  N     -158.372    -690.778     922.742
  C     -158.677    -692.032     922.400
  C     -157.907    -692.922     921.650
  C     -156.653    -692.445     921.212
  N     -155.789    -693.204     920.456
  N     -158.562    -694.117     921.499
  C     -159.691    -693.971     922.154
  N     -159.815    -692.725     922.700
  O     -165.243    -696.181     925.892
  O     -166.168    -693.959     925.032
  H     -162.929    -689.654     923.325
  H     -165.180    -695.646     926.698
  H     -156.812    -689.416     922.509
  H     -160.452    -694.749     922.261
  H     -160.478    -691.864     924.454
  H     -161.197    -690.560     922.052
  H     -162.585    -692.429     921.294
  H     -163.685    -692.480     924.147
  H     -164.897    -693.892     922.501
  H     -154.902    -692.817     920.200
  H     -156.035    -694.170     920.234
  H     -163.405    -694.699     922.044
  P     -164.625    -690.988     920.551
  C     -166.565    -692.727     920.843
  O     -165.298    -692.440     920.265
  O     -163.309    -691.002     919.629
  O     -165.496    -689.798     920.309
  H     -163.479    -690.490     918.812
  H     -166.987    -693.573     920.311
  H     -167.249    -691.875     920.739
  H     -166.444    -692.991     921.890
  H     -166.729    -697.979     922.765
  H     -165.906    -698.059     924.305
  H     -165.064    -697.465     922.893

 3  4  5  6  7  8  9  10  11  12  22  25  29  30  31  32 0
 6-311+G(2d,p)
 ****
 33  36  37 0
 6-311+G(2d,p)
 ****
 1  2  13  14  15  16  17  18  19  20  21  23  24  26 0
 3-21G
 ****
 27  28  34  35  38  39  40  41  42  43  44  45  46  47  48 0
 3-21G
 ****


