%nproc=1
%NoSave
%Mem=1900MB
#P OB98/GEN NMR

erre ene a

0 1
  C      136.465     447.942    -389.303
  O      136.639     446.627    -389.792
  H      135.844     447.906    -388.408
  H      135.963     448.556    -390.058
  H      137.434     448.385    -389.045
  P      137.673     446.438    -391.004
  C      139.748     445.636    -389.603
  O      139.129     446.656    -390.372
  C      140.882     444.971    -390.388
  O      141.970     445.923    -390.527
  C      141.443     443.719    -389.716
  O      141.806     442.785    -390.739
  C      142.696     444.219    -389.027
  O      143.639     443.174    -388.789
  C      143.163     445.307    -390.006
  N      144.048     446.287    -389.376
  C      145.383     445.920    -389.210
  O      145.771     444.804    -389.573
  N      146.241     446.792    -388.598
  C      145.795     447.918    -388.131
  N      146.694     448.732    -387.516
  C      144.382     448.334    -388.245
  C      143.578     447.483    -388.884
  O      137.424     447.768    -391.858
  O      137.500     445.166    -391.777
  H      143.872     442.764    -389.649
  H      137.366     448.570    -391.314
  H      144.055     449.275    -387.835
  H      142.525     447.709    -389.022
  H      143.703     444.859    -390.857
  H      142.441     444.666    -388.062
  H      140.735     443.250    -389.028
  H      140.520     444.751    -391.399
  H      147.647     448.398    -387.437
  H      139.009     444.877    -389.317
  H      146.451     449.603    -387.069
  H      140.137     446.094    -388.687
  P      141.354     441.247    -390.608
  C      139.373     441.529    -392.254
  O      139.793     441.131    -390.951
  O      141.794     440.550    -389.365
  O      142.037     440.570    -391.895
  H      142.386     439.701    -391.622
  H      138.315     441.399    -392.343
  H      139.869     440.928    -392.988
  H      139.621     442.558    -392.410

 6  7  8  9  10  11  12  13  14  15  16  26  30  31  32  33  35 0
 6-311+G(2d,p)
 ****
 37  38 0
 6-311+G(2d,p)
 ****
 1  2  3  4  5  17  18  19  20  21  22  23  24  25 0
 3-21G
 ****
 27  28  29  34  36  39  40  41  42  43  44  45  46 0
 3-21G
 ****


