%nproc=1
%NoSave
%Mem=1900MB
#P OB98/GEN NMR

erre ene a

0 1
  C     -934.828     173.554    -581.001
  O     -934.483     172.223    -581.395
  P     -933.163     171.552    -580.777
  C     -933.699     169.232    -579.789
  O     -933.600     170.631    -579.536
  C     -935.159     168.780    -579.775
  O     -935.932     169.445    -580.799
  C     -935.328     167.296    -580.049
  O     -934.955     166.528    -578.918
  C     -936.797     167.222    -580.430
  O     -937.628     167.178    -579.253
  C     -937.006     168.555    -581.174
  N     -937.081     168.402    -582.623
  C     -938.372     168.305    -583.159
  O     -939.359     168.309    -582.418
  N     -938.507     168.177    -584.515
  C     -937.452     168.153    -585.275
  N     -937.648     168.031    -586.616
  C     -936.081     168.238    -584.743
  C     -935.968     168.347    -583.417
  O     -932.026     172.482    -580.512
  O     -932.772     170.462    -581.888
  H     -938.541     167.031    -579.572
  H     -931.800     170.339    -581.883
  H     -935.227     168.217    -585.417
  H     -934.995     168.413    -582.947
  H     -937.935     169.036    -580.843
  H     -937.028     166.330    -581.015
  H     -934.708     167.007    -580.910
  H     -935.587     169.024    -578.793
  H     -938.600     167.959    -586.946
  H     -933.134     168.688    -579.020
  H     -936.893     168.048    -587.286
  H     -933.222     169.010    -580.745
  P     -933.915     165.323    -579.143
  C     -932.117     166.206    -577.497
  O     -932.452     165.883    -578.837
  O     -933.918     165.144    -580.735
  O     -934.279     164.050    -578.457
  H     -933.794     164.202    -580.952
  H     -931.032     166.260    -577.410
  H     -932.491     165.452    -576.797
  H     -932.542     167.177    -577.242
  H     -935.727     173.852    -581.499
  H     -934.035     174.222    -581.267
  H     -934.980     173.585    -579.942

 3  4  5  6  7  8  9  10  11  12  13  23  27  28  29  30  32 0
 6-311+G(2d,p)
 ****
 34  35 0
 6-311+G(2d,p)
 ****
 1  2  14  15  16  17  18  19  20  21  22  24  25  26 0
 3-21G
 ****
 31  33  36  37  38  39  40  41  42  43  44  45  46 0
 3-21G
 ****


