%nproc=1
%NoSave
%Mem=1900MB
#P OB98/GEN NMR

erre ene a

0 1
  C     -216.795     892.458    -201.604
  O     -217.089     892.505    -202.978
  P     -218.607     892.596    -203.483
  C     -218.439     895.097    -204.064
  O     -218.654     893.785    -204.565
  C     -218.373     896.097    -205.217
  O     -217.338     895.732    -206.163
  C     -219.640     896.163    -206.059
  O     -220.805     896.659    -205.439
  C     -219.143     896.894    -207.287
  O     -219.093     898.305    -207.073
  C     -217.711     896.320    -207.435
  N     -217.621     895.355    -208.530
  C     -218.003     895.817    -209.783
  O     -218.406     896.960    -209.991
  N     -217.951     894.904    -210.797
  C     -217.597     893.592    -210.678
  O     -217.613     892.818    -211.627
  C     -217.214     893.156    -209.329
  C     -217.240     894.042    -208.329
  O     -219.632     892.706    -202.402
  O     -218.771     891.297    -204.406
  H     -218.626     898.703    -207.834
  H     -218.162     891.258    -205.165
  H     -218.239     895.214    -211.712
  H     -216.916     892.124    -209.203
  H     -216.965     893.742    -207.322
  H     -216.996     897.124    -207.627
  H     -219.795     896.724    -208.156
  H     -219.893     895.140    -206.374
  H     -218.109     897.076    -204.810
  H     -217.492     895.123    -203.517
  H     -219.240     895.356    -203.359
  P     -222.274     896.511    -206.063
  C     -223.054     895.067    -204.052
  O     -223.296     896.195    -204.872
  O     -222.390     895.693    -207.305
  O     -222.631     898.037    -206.405
  H     -223.217     898.056    -207.190
  H     -223.869     894.979    -203.326
  H     -222.113     895.193    -203.504
  H     -223.017     894.153    -204.652
  H     -215.735     892.399    -201.468
  H     -217.259     891.597    -201.169
  H     -217.167     893.342    -201.129

 3  4  5  6  7  8  9  10  11  12  13  23  28  29  30  31  32 0
 6-311+G(2d,p)
 ****
 33  34 0
 6-311+G(2d,p)
 ****
 1  2  14  15  16  17  18  19  20  21  22  24  25  26  27 0
 3-21G
 ****
 35  36  37  38  39  40  41  42  43  44  45 0
 3-21G
 ****


