%nproc=1
%NoSave
%Mem=1900MB
#P OB98/GEN NMR

erre ene a

0 1
  C     -301.115     -37.640     190.610
  O     -302.260     -37.017     191.161
  H     -300.708     -36.995     189.827
  H     -301.385     -38.603     190.167
  H     -300.354     -37.782     191.383
  P     -302.997     -37.802     192.352
  C     -302.284     -35.919     193.982
  O     -302.239     -37.308     193.678
  C     -302.707     -35.704     195.436
  O     -301.768     -36.324     196.332
  C     -302.780     -34.242     195.857
  O     -304.000     -33.652     195.434
  C     -302.719     -34.382     197.371
  O     -304.017     -34.748     197.881
  C     -301.735     -35.551     197.562
  N     -298.309     -34.402     201.215
  C     -299.648     -34.583     201.263
  N     -300.499     -34.841     200.247
  C     -299.840     -34.913     199.077
  C     -298.477     -34.751     198.873
  C     -297.694     -34.494     200.013
  N     -296.326     -34.319     199.958
  N     -298.163     -34.890     197.537
  C     -299.308     -35.186     196.951
  N     -300.358     -35.175     197.838
  O     -303.128     -39.274     192.175
  O     -304.382     -37.001     192.434
  H     -303.968     -34.722     198.855
  H     -304.235     -36.048     192.294
  H     -300.096     -34.511     202.251
  H     -299.426     -35.428     195.903
  H     -302.045     -36.212     198.378
  H     -302.437     -33.450     197.866
  H     -301.904     -33.680     195.513
  H     -303.674     -36.204     195.581
  H     -302.979     -35.405     193.312
  H     -295.870     -33.971     200.788
  H     -295.890     -34.264     199.050
  H     -301.279     -35.513     193.818
  P     -304.138     -32.059     195.310
  C     -303.676     -32.402     192.802
  O     -303.371     -31.636     193.962
  O     -303.728     -31.297     196.523
  O     -305.674     -31.817     194.943
  H     -306.008     -31.021     195.398
  H     -303.111     -32.033     191.972
  H     -304.721     -32.322     192.586
  H     -303.426     -33.428     192.976

 6  7  8  9  10  11  12  13  14  15  25  28  32  33  34  35 0
 6-311+G(2d,p)
 ****
 36  39  40 0
 6-311+G(2d,p)
 ****
 1  2  3  4  5  16  17  18  19  20  21  22  23  24 0
 3-21G
 ****
 26  27  29  30  31  37  38  41  42  43  44  45  46  47 0
 3-21G
 ****
 48 0
 3-21G
 ****


