%nproc=1
%NoSave
%Mem=1900MB
#P OB98/GEN NMR

erre ene a

0 1
  C      -81.716    -145.096    -851.245
  O      -80.897    -144.948    -852.398
  P      -81.612    -144.451    -853.749
  C      -80.722    -143.478    -855.992
  O      -80.503    -143.674    -854.606
  C      -79.715    -142.456    -856.551
  O      -79.955    -141.165    -855.958
  C      -78.261    -142.781    -856.250
  O      -77.783    -143.813    -857.097
  C      -77.631    -141.413    -856.494
  O      -77.464    -141.185    -857.902
  C      -78.691    -140.461    -855.934
  N      -75.114    -138.634    -852.741
  C      -75.065    -138.978    -854.040
  N      -76.061    -139.476    -854.819
  C      -77.190    -139.601    -854.113
  C      -77.384    -139.323    -852.772
  C      -76.287    -138.803    -852.064
  N      -76.333    -138.461    -850.742
  N      -78.681    -139.596    -852.386
  C      -79.262    -140.039    -853.484
  N      -78.409    -140.043    -854.562
  O      -82.574    -143.278    -853.241
  O      -82.366    -145.514    -854.491
  H      -77.054    -140.304    -858.014
  H      -83.397    -143.245    -853.765
  H      -74.111    -138.832    -854.540
  H      -80.298    -140.366    -853.552
  H      -78.805    -139.545    -856.525
  H      -76.641    -141.305    -856.028
  H      -78.137    -143.068    -855.202
  H      -79.889    -142.374    -857.631
  H      -81.731    -143.099    -856.154
  H      -75.462    -138.243    -850.270
  H      -77.158    -138.723    -850.206
  H      -80.625    -144.438    -856.511
  P      -76.221    -144.181    -856.989
  C      -74.864    -146.269    -857.647
  O      -76.161    -145.713    -857.485
  O      -76.029    -144.318    -855.404
  O      -75.307    -143.242    -857.684
  H      -76.719    -144.872    -855.003
  H      -74.965    -147.314    -857.936
  H      -74.303    -146.204    -856.713
  H      -74.333    -145.736    -858.441
  H      -81.118    -145.430    -850.423
  H      -82.484    -145.815    -851.443
  H      -82.163    -144.155    -851.002

 3  4  5  6  7  8  9  10  11  12  22  25  29  30  31  32 0
 6-311+G(2d,p)
 ****
 33  36  37 0
 6-311+G(2d,p)
 ****
 1  2  13  14  15  16  17  18  19  20  21  23  24  26 0
 3-21G
 ****
 27  28  34  35  38  39  40  41  42  43  44  45  46  47  48 0
 3-21G
 ****


