%nproc=1
%NoSave
%Mem=1900MB
#P OB98/GEN NMR

erre ene a

0 1
  C       21.801     -58.182     -35.178
  O       21.892     -56.838     -35.617
  P       22.574     -55.782     -34.620
  C       21.757     -54.424     -32.558
  O       21.443     -55.392     -33.554
  C       20.543     -54.155     -31.674
  O       19.548     -53.425     -32.412
  C       19.847     -55.413     -31.182
  O       20.565     -55.995     -30.113
  C       18.481     -54.865     -30.785
  O       18.498     -54.364     -29.438
  C       18.272     -53.716     -31.799
  N       17.261     -54.028     -32.796
  C       15.933     -53.818     -32.403
  O       15.682     -53.413     -31.267
  N       14.929     -54.111     -33.293
  C       15.227     -54.575     -34.466
  N       14.192     -54.843     -35.309
  C       16.611     -54.829     -34.911
  C       17.570     -54.542     -34.031
  O       22.710     -54.468     -35.519
  O       23.883     -56.218     -34.048
  H       19.169     -53.650     -29.430
  H       23.445     -53.907     -35.207
  H       16.805     -55.218     -35.900
  H       18.614     -54.700     -34.276
  H       17.964     -52.800     -31.278
  H       17.705     -55.634     -30.828
  H       19.731     -56.134     -32.001
  H       20.865     -53.537     -30.826
  H       13.254     -54.665     -34.973
  H       22.055     -53.490     -33.042
  H       14.319     -55.186     -36.250
  H       22.599     -54.790     -31.961
  P       20.386     -57.566     -29.863
  C       18.359     -59.080     -29.443
  O       18.837     -57.751     -29.497
  O       21.093     -57.764     -28.437
  O       20.939     -58.489     -30.897
  H       21.136     -58.712     -28.217
  H       17.346     -59.073     -29.036
  H       18.996     -59.691     -28.798
  H       18.331     -59.507     -30.450
  H       21.329     -58.773     -35.935
  H       21.222     -58.225     -34.279
  H       22.783     -58.563     -34.989

 3  4  5  6  7  8  9  10  11  12  13  21  23  27  28  29  30  32 0
 6-311+G(2d,p)
 ****
 34  35 0
 6-311+G(2d,p)
 ****
 1  2  14  15  16  17  18  19  20  22  24  25  26 0
 3-21G
 ****
 31  33  36  37  38  39  40  41  42  43  44  45  46 0
 3-21G
 ****


