%nproc=1
%NoSave
%Mem=1900MB
#P OB98/GEN NMR

erre ene a

0 1
  C     -214.963     -17.787    -320.402
  O     -213.911     -16.886    -320.708
  P     -213.285     -16.951    -322.196
  C     -211.742     -18.715    -323.308
  O     -212.096     -18.035    -322.108
  C     -210.240     -18.599    -323.559
  O     -209.530     -18.725    -322.302
  C     -209.656     -19.684    -324.463
  O     -209.872     -19.400    -325.831
  C     -208.171     -19.608    -324.104
  O     -207.555     -18.530    -324.833
  C     -208.228     -19.283    -322.593
  N     -204.857     -22.695    -320.967
  C     -204.690     -21.634    -321.843
  N     -203.452     -21.455    -322.337
  N     -205.663     -20.831    -322.203
  C     -206.845     -21.117    -321.603
  C     -207.127     -22.142    -320.713
  C     -206.070     -23.052    -320.358
  O     -206.152     -24.042    -319.644
  N     -208.447     -22.106    -320.319
  C     -208.942     -21.039    -320.917
  N     -208.004     -20.432    -321.750
  O     -212.515     -15.561    -322.327
  O     -214.286     -17.150    -323.301
  H     -207.682     -18.735    -325.781
  H     -212.437     -15.308    -323.268
  H     -204.074     -23.273    -320.698
  H     -209.956     -20.673    -320.779
  H     -207.484     -18.500    -322.335
  H     -207.639     -20.518    -324.345
  H     -202.631     -21.941    -321.989
  H     -210.051     -20.673    -324.195
  H     -203.296     -20.662    -322.949
  H     -210.039     -17.598    -323.978
  H     -212.277     -18.258    -324.165
  H     -212.052     -19.773    -323.235
  P     -209.871     -20.653    -326.837
  C     -208.130     -22.523    -327.389
  O     -208.385     -21.286    -326.738
  O     -209.913     -19.972    -328.276
  O     -211.006     -21.605    -326.627
  H     -210.316     -20.584    -328.929
  H     -208.692     -22.607    -328.327
  H     -208.413     -23.335    -326.708
  H     -207.055     -22.577    -327.599
  H     -215.280     -17.635    -319.391
  H     -214.617     -18.793    -320.520
  H     -215.786     -17.613    -321.064

 3  4  5  6  7  8  9  10  11  12  23  26  30  31  33  0
 6-311+G(2d,p)
 ****
 35  36  37  38 0
 6-311+G(2d,p)
 ****
 1  2  13  14  15  16  17  18  19  20  21  22  24  25  27  28  29 0
 3-21G
 ****
 32  34  39  40  41  42  43  44  45  46  47  48  49 0
 3-21G
 ****


