%nproc=1
%NoSave
%Mem=1900MB
#P OB98/GEN NMR

erre ene a

0 1
  C      -41.566    -437.620     182.876
  O      -41.082    -436.277     183.019
  P      -41.653    -435.413     184.239
  C      -39.554    -435.321     185.804
  O      -40.829    -435.886     185.531
  C      -39.288    -435.328     187.311
  O      -39.279    -436.683     187.819
  C      -37.947    -434.741     187.715
  O      -37.965    -433.317     187.622
  C      -37.801    -435.289     189.130
  O      -38.568    -434.500     190.053
  C      -38.429    -436.693     188.987
  N      -37.434    -437.757     188.918
  C      -36.861    -438.132     190.145
  O      -37.143    -437.592     191.207
  N      -35.926    -439.128     190.080
  C      -35.497    -439.762     188.943
  O      -34.669    -440.667     188.953
  C      -36.105    -439.293     187.688
  C      -37.029    -438.333     187.733
  O      -43.099    -436.062     184.429
  O      -41.648    -433.945     183.967
  H      -43.108    -437.017     184.258
  H      -38.258    -434.747     190.952
  H      -35.508    -439.418     190.950
  H      -35.773    -439.755     186.768
  H      -37.478    -437.965     186.816
  H      -39.085    -436.900     189.841
  H      -36.770    -435.278     189.474
  H      -37.152    -435.144     187.072
  H      -40.110    -434.788     187.797
  H      -39.518    -434.289     185.444
  H      -38.789    -435.884     185.260
  P      -36.602    -432.612     187.144
  C      -37.223    -431.926     184.683
  O      -36.527    -432.800     185.554
  O      -35.504    -433.631     187.700
  O      -36.449    -431.201     187.625
  H      -35.728    -434.555     187.548
  H      -36.786    -431.996     183.698
  H      -37.167    -430.894     185.038
  H      -38.279    -432.232     184.636
  H      -41.104    -438.077     182.026
  H      -42.627    -437.604     182.740
  H      -41.328    -438.180     183.756

 3  4  5  6  7  8  9  10  11  12  13  24  28  29  30  31  32 0
 6-311+G(2d,p)
 ****
 33  34 0
 6-311+G(2d,p)
 ****
 1  2  14  15  16  17  18  19  20  21  22  23  25  26  27 0
 3-21G
 ****
 35  36  37  38  39  40  41  42  43  44  45 0
 3-21G
 ****


