%nproc=1
%NoSave
%Mem=1900MB
#P OB98/GEN NMR

erre ene a

0 1
  C      349.553    -319.511    -221.986
  O      349.097    -319.764    -220.667
  P      349.275    -321.248    -220.086
  C      346.731    -321.484    -220.716
  O      347.790    -321.798    -219.826
  C      345.381    -321.781    -220.051
  O      345.167    -323.206    -219.989
  C      345.261    -321.286    -218.616
  O      345.036    -319.888    -218.556
  C      344.104    -322.139    -218.106
  O      342.848    -321.585    -218.539
  C      344.362    -323.483    -218.822
  N      345.002    -324.477    -217.964
  C      344.373    -325.713    -217.877
  O      343.335    -325.984    -218.479
  N      344.966    -326.633    -217.052
  C      346.071    -326.419    -216.277
  O      346.536    -327.264    -215.521
  C      346.674    -325.082    -216.385
  C      346.122    -324.188    -217.205
  O      349.851    -320.926    -218.628
  O      350.148    -322.111    -220.934
  H      349.559    -320.051    -218.309
  H      342.696    -320.784    -217.997
  H      344.544    -327.545    -216.991
  H      347.545    -324.875    -215.772
  H      346.550    -323.196    -217.289
  H      343.420    -323.903    -219.192
  H      344.075    -322.204    -217.017
  H      346.169    -321.538    -218.058
  H      344.590    -321.341    -220.677
  H      346.831    -322.089    -221.620
  H      346.798    -320.425    -220.991
  P      346.162    -319.009    -217.808
  C      344.640    -317.330    -216.505
  O      345.521    -317.557    -217.584
  O      347.220    -318.797    -218.990
  O      346.718    -319.665    -216.588
  H      346.800    -318.595    -219.842
  H      344.600    -316.254    -216.308
  H      344.975    -317.840    -215.599
  H      343.638    -317.675    -216.771
  H      349.370    -318.487    -222.236
  H      349.030    -320.145    -222.672
  H      350.603    -319.711    -222.045

 3  4  5  6  7  8  9  10  11  12  13  24  28  29  30  31  32 0
 6-311+G(2d,p)
 ****
 33  34 0
 6-311+G(2d,p)
 ****
 1  2  14  15  16  17  18  19  20  21  22  23  25  26  27 0
 3-21G
 ****
 35  36  37  38  39  40  41  42  43  44  45 0
 3-21G
 ****


