%nproc=1
%NoSave
%Mem=1900MB
#P OB98/GEN NMR

erre ene a

0 1
  C      681.382    -748.383    -174.689
  O      680.600    -747.396    -173.998
  P      680.959    -747.070    -172.472
  C      681.181    -744.888    -171.054
  O      680.567    -745.549    -172.164
  C      680.447    -743.589    -170.721
  O      680.719    -742.559    -171.692
  C      678.932    -743.739    -170.698
  O      678.469    -744.270    -169.469
  C      678.485    -742.296    -170.845
  O      678.581    -741.620    -169.569
  C      679.534    -741.724    -171.815
  N      676.224    -739.744    -175.183
  C      676.375    -739.564    -173.851
  N      677.268    -740.146    -173.027
  C      678.077    -740.967    -173.698
  C      678.048    -741.253    -175.050
  C      677.069    -740.597    -175.810
  N      676.919    -740.786    -177.169
  N      679.032    -742.165    -175.383
  C      679.653    -742.420    -174.253
  N      679.109    -741.724    -173.209
  O      682.561    -747.050    -172.471
  O      680.435    -748.072    -171.498
  H      677.903    -742.020    -168.990
  H      682.898    -747.390    -171.628
  H      675.679    -738.869    -173.386
  H      680.496    -743.076    -174.140
  H      679.831    -740.699    -171.568
  H      677.449    -742.189    -171.176
  H      678.581    -744.324    -171.561
  H      680.789    -743.248    -169.741
  H      682.229    -744.678    -171.288
  H      676.212    -740.259    -177.660
  H      677.559    -741.409    -177.650
  H      681.180    -745.576    -170.193
  P      677.586    -745.615    -169.525
  C      677.475    -747.578    -167.841
  O      677.548    -746.178    -168.034
  O      678.535    -746.631    -170.327
  O      676.260    -745.441    -170.186
  H      677.982    -747.263    -170.839
  H      677.774    -747.806    -166.808
  H      678.149    -748.105    -168.534
  H      676.450    -747.919    -167.998
  H      681.021    -748.486    -175.691
  H      681.300    -749.322    -174.182
  H      682.407    -748.076    -174.709

 3  4  5  6  7  8  9  10  11  12  22  25  29  30  31  32 0
 6-311+G(2d,p)
 ****
 33  36  37 0
 6-311+G(2d,p)
 ****
 1  2  13  14  15  16  17  18  19  20  21  23  24  26 0
 3-21G
 ****
 27  28  34  35  38  39  40  41  42  43  44  45  46  47  48 0
 3-21G
 ****


