%nproc=1
%NoSave
%Mem=1900MB
#P OB98/GEN NMR

erre ene a

0 1
  C      -59.129     -51.271    -197.787
  O      -60.285     -52.114    -197.805
  P      -60.073     -53.642    -197.342
  C      -62.260     -54.432    -198.514
  O      -61.520     -54.336    -197.303
  C      -63.633     -53.782    -198.363
  O      -63.511     -52.388    -198.024
  C      -64.482     -53.809    -199.629
  O      -65.106     -55.070    -199.816
  C      -65.518     -52.737    -199.310
  O      -66.565     -53.294    -198.500
  C      -64.700     -51.713    -198.505
  N      -66.101     -47.207    -200.357
  C      -66.813     -48.110    -199.588
  N      -68.068     -47.745    -199.243
  N      -66.339     -49.260    -199.196
  C      -65.059     -49.477    -199.590
  C      -64.254     -48.665    -200.353
  C      -64.802     -47.406    -200.809
  O      -64.228     -46.586    -201.517
  N      -63.014     -49.219    -200.541
  C      -63.059     -50.355    -199.872
  N      -64.286     -50.564    -199.288
  O      -59.692     -53.497    -195.795
  O      -59.022     -54.366    -198.116
  H      -67.107     -52.548    -198.177
  H      -59.148     -54.258    -195.512
  H      -66.520     -46.337    -200.638
  H      -62.237     -51.054    -199.774
  H      -65.249     -51.354    -197.629
  H      -65.993     -52.330    -200.209
  H      -68.470     -46.844    -199.449
  H      -63.891     -53.507    -200.502
  H      -68.591     -48.379    -198.646
  H      -64.164     -54.294    -197.548
  H      -62.384     -55.483    -198.790
  H      -61.687     -53.960    -199.320
  P      -64.812     -55.832    -201.199
  C      -67.215     -56.805    -201.325
  O      -65.829     -57.070    -201.230
  O      -63.385     -56.509    -200.944
  O      -64.810     -54.950    -202.402
  H      -62.903     -56.609    -201.789
  H      -67.421     -56.017    -202.057
  H      -67.601     -56.505    -200.347
  H      -67.729     -57.717    -201.641
  H      -59.399     -50.288    -198.113
  H      -58.385     -51.673    -198.442
  H      -58.739     -51.222    -196.792

 3  4  5  6  7  8  9  10  11  12  23  26  30  31  33  0
 6-311+G(2d,p)
 ****
 35  36  37  38 0
 6-311+G(2d,p)
 ****
 1  2  13  14  15  16  17  18  19  20  21  22  24  25  27  28  29 0
 3-21G
 ****
 32  34  39  40  41  42  43  44  45  46  47  48  49 0
 3-21G
 ****


