%nproc=1
%NoSave
%Mem=1900MB
#P OB98/GEN NMR

erre ene a

0 1
  C      258.049     502.679     277.716
  O      258.281     501.290     277.807
  H      258.538     503.056     276.814
  H      258.480     503.185     278.582
  H      256.981     502.899     277.650
  P      257.441     500.433     278.868
  C      256.459     498.929     277.020
  O      256.180     499.837     278.075
  C      255.237     498.064     276.707
  O      254.918     497.257     277.880
  C      253.978     498.867     276.349
  O      253.208     498.077     275.435
  C      253.274     498.954     277.689
  O      251.914     499.301     277.541
  C      253.560     497.560     278.251
  N      253.355     497.488     279.698
  C      252.205     496.840     280.131
  O      251.363     496.371     279.361
  N      252.018     496.784     281.483
  C      252.825     497.357     282.423
  O      252.593     497.303     283.623
  C      254.007     498.066     281.904
  C      254.214     498.097     280.585
  O      257.102     501.133     280.142
  O      258.338     499.132     279.124
  H      251.834     500.177     277.107
  H      258.199     498.802     280.032
  H      251.192     496.309     281.814
  H      254.663     498.540     282.622
  H      255.077     498.610     280.175
  H      252.907     496.811     277.781
  H      253.738     499.721     278.319
  H      254.199     499.846     275.916
  H      255.498     497.363     275.905
  H      257.294     498.293     277.332
  H      256.756     499.488     276.126
  P      253.439     498.140     273.847
  C      252.105     496.036     273.192
  O      253.390     496.649     273.258
  O      254.641     498.923     273.433
  O      252.101     498.811     273.270
  H      252.305     499.282     272.440
  H      252.200     495.051     272.785
  H      251.463     496.620     272.566
  H      251.687     495.977     274.175

 6  7  8  9  10  11  12  13  14  15  16  26  31  32  33  34  35 0
 6-311+G(2d,p)
 ****
 36  37 0
 6-311+G(2d,p)
 ****
 1  2  3  4  5  17  18  19  20  21  22  23  24  25 0
 3-21G
 ****
 27  28  29  30  38  39  40  41  42  43  44  45 0
 3-21G
 ****


