%nproc=1
%NoSave
%Mem=1900MB
#P OB98/GEN NMR

erre ene a

0 1
  C       87.187    -342.243     -96.343
  O       87.958    -342.276     -97.533
  P       89.556    -342.257     -97.391
  C       89.581    -344.858     -97.561
  O       89.990    -343.703     -96.846
  C       90.658    -345.947     -97.485
  O       90.917    -346.240     -96.085
  C       90.284    -347.271     -98.162
  O       91.498    -347.837     -98.669
  C       89.771    -348.111     -97.008
  O       89.816    -349.510     -97.284
  C       90.697    -347.653     -95.888
  N       89.854    -351.102     -92.279
  C       90.389    -351.258     -93.547
  N       90.815    -352.501     -93.872
  N       90.502    -350.287     -94.416
  C       90.053    -349.097     -93.942
  C       89.466    -348.825     -92.731
  C       89.384    -349.900     -91.763
  O       88.998    -349.786     -90.605
  N       89.056    -347.521     -92.653
  C       89.465    -346.986     -93.783
  N       90.114    -347.890     -94.582
  O       89.796    -341.291     -96.141
  O       90.309    -341.813     -98.609
  H       90.728    -349.727     -97.570
  H       89.954    -340.372     -96.427
  H       89.812    -351.884     -91.649
  H       89.327    -345.958     -94.078
  H       91.673    -348.159     -95.914
  H       88.729    -347.846     -96.791
  H       90.785    -353.287     -93.239
  H       89.552    -347.158     -98.965
  H       91.239    -352.636     -94.777
  H       91.584    -345.547     -97.912
  H       89.436    -344.591     -98.615
  H       88.632    -345.223     -97.160
  P       91.399    -348.812     -99.940
  C       91.252    -346.894    -101.677
  O       90.623    -348.018    -101.094
  O       90.325    -349.906     -99.462
  O       92.684    -349.463    -100.333
  H       90.533    -350.767     -99.872
  H       90.820    -346.719    -102.667
  H       92.328    -347.042    -101.782
  H       91.069    -346.012    -101.052
  H       86.146    -342.261     -96.592
  H       87.409    -341.349     -95.799
  H       87.424    -343.095     -95.741

 3  4  5  6  7  8  9  10  11  12  23  26  30  31 0
 6-311+G(2d,p)
 ****
 33  35  36  37  38 0
 6-311+G(2d,p)
 ****
 1  2  13  14  15  16  17  18  19  20  21  22  24  25 0
 3-21G
 ****
 27  28  29  32  34  39  40  41  42  43  44  45  46  47  48  49 0
 3-21G
 ****


