%nproc=1
%NoSave
%Mem=1900MB
#P OB98/GEN NMR

erre ene a

0 1
  C      528.836     260.464     -57.526
  O      527.919     260.119     -58.549
  P      527.684     258.562     -58.845
  C      525.100     258.740     -59.076
  O      526.342     258.450     -59.711
  C      523.925     258.570     -60.046
  O      523.821     259.753     -60.876
  C      524.045     257.367     -60.972
  O      522.734     256.803     -61.143
  C      524.509     257.964     -62.290
  O      524.162     257.143     -63.398
  C      523.805     259.329     -62.247
  N      524.448     260.311     -63.118
  C      524.249     260.180     -64.499
  O      523.604     259.212     -64.932
  N      524.811     261.095     -65.347
  C      525.600     262.008     -64.879
  N      526.141     262.896     -65.756
  C      525.951     262.112     -63.439
  C      525.331     261.253     -62.628
  O      527.243     257.983     -57.406
  O      528.879     257.838     -59.390
  H      523.177     257.101     -63.460
  H      527.546     257.062     -57.290
  H      526.656     262.865     -63.108
  H      525.509     261.272     -61.544
  H      522.759     259.242     -62.563
  H      525.608     258.085     -62.280
  H      524.722     256.589     -60.583
  H      523.001     258.510     -59.452
  H      525.896     262.797     -66.736
  H      525.116     259.782     -58.736
  H      526.769     263.637     -65.477
  H      524.984     258.091     -58.207
  P      522.546     255.223     -60.942
  C      520.709     255.625     -59.192
  O      521.040     255.046     -60.443
  O      523.376     255.001     -59.577
  O      523.042     254.309     -62.013
  H      523.388     254.041     -59.362
  H      519.626     255.538     -59.044
  H      520.998     256.673     -59.168
  H      521.224     255.082     -58.370
  H      528.891     261.529     -57.441
  H      529.803     260.075     -57.768
  H      528.507     260.048     -56.597

 3  4  5  6  7  8  9  10  11  12  13  21  23  27  28  29  30  32 0
 6-311+G(2d,p)
 ****
 34  35 0
 6-311+G(2d,p)
 ****
 1  2  14  15  16  17  18  19  20  22  24  25  26 0
 3-21G
 ****
 31  33  36  37  38  39  40  41  42  43  44  45  46 0
 3-21G
 ****


