%nproc=1
%NoSave
%Mem=1900MB
#P OB98/GEN NMR

erre ene a

0 1
  C      665.997     687.424    -762.058
  O      664.620     687.611    -762.329
  P      664.129     688.564    -763.523
  C      663.172     686.702    -765.025
  O      664.207     687.669    -764.858
  C      662.865     686.469    -766.502
  O      662.329     687.686    -767.085
  C      664.076     686.044    -767.351
  O      663.570     685.159    -768.353
  C      664.514     687.364    -767.973
  O      665.331     687.176    -769.126
  C      663.154     688.028    -768.225
  N      663.279     689.464    -768.405
  C      663.625     689.914    -769.682
  O      663.896     689.104    -770.566
  N      663.721     691.261    -769.909
  C      663.582     692.096    -768.920
  N      663.682     693.422    -769.210
  C      663.337     691.664    -767.531
  C      663.186     690.344    -767.346
  O      664.824     689.880    -763.613
  O      662.551     688.686    -763.278
  H      666.159     686.740    -768.854
  H      662.366     689.321    -762.541
  H      663.280     692.377    -766.728
  H      662.995     689.932    -766.370
  H      662.672     687.603    -769.107
  H      665.094     687.944    -767.245
  H      664.876     685.570    -766.774
  H      662.082     685.701    -766.571
  H      663.836     693.675    -770.169
  H      662.275     687.079    -764.530
  H      663.513     694.146    -768.531
  H      663.457     685.767    -764.531
  P      664.313     683.765    -768.676
  C      662.931     681.784    -767.830
  O      663.916     682.751    -767.507
  O      665.773     683.876    -768.957
  O      663.513     683.188    -769.944
  H      664.041     682.491    -770.364
  H      662.946     680.990    -767.071
  H      663.107     681.350    -768.811
  H      661.945     682.262    -767.810
  H      666.110     686.757    -761.229
  H      666.445     688.366    -761.821
  H      666.477     687.007    -762.919

 3  4  5  6  7  8  9  10  11  12  13  23  27  28  29  30  32 0
 6-311+G(2d,p)
 ****
 34  35 0
 6-311+G(2d,p)
 ****
 1  2  14  15  16  17  18  19  20  21  22  24  25  26 0
 3-21G
 ****
 31  33  36  37  38  39  40  41  42  43  44  45  46 0
 3-21G
 ****


