%nproc=1
%NoSave
%Mem=1900MB
#P OB98/GEN NMR

erre ene a

0 1
  C     -646.582    -629.887     577.728
  O     -647.002    -630.678     578.843
  P     -648.140    -630.095     579.804
  C     -648.334    -632.600     580.688
  O     -648.576    -631.214     580.872
  C     -648.176    -633.264     582.062
  O     -646.934    -632.867     582.683
  C     -649.296    -632.909     583.045
  O     -650.424    -633.768     582.891
  C     -648.597    -633.043     584.383
  O     -648.501    -634.433     584.749
  C     -647.209    -632.458     584.052
  N     -647.020    -630.994     584.165
  C     -646.542    -630.440     585.354
  O     -646.240    -631.092     586.349
  N     -646.377    -629.073     585.362
  C     -646.493    -628.242     584.281
  O     -646.269    -627.041     584.322
  C     -646.856    -628.899     583.002
  C     -647.118    -630.220     583.019
  O     -649.410    -629.963     578.854
  O     -647.783    -628.800     580.452
  H     -649.375    -634.825     584.587
  H     -649.661    -629.035     578.740
  H     -646.106    -628.651     586.219
  H     -646.914    -628.294     582.125
  H     -647.377    -630.715     582.080
  H     -646.440    -632.920     584.694
  H     -649.168    -632.562     585.168
  H     -649.588    -631.854     582.910
  H     -648.144    -634.349     581.911
  H     -647.435    -632.739     580.094
  H     -649.176    -633.042     580.132
  P     -651.804    -633.181     582.324
  C     -651.732    -635.236     580.790
  O     -652.539    -634.412     581.615
  O     -651.693    -631.922     581.512
  O     -652.690    -632.960     583.649
  H     -652.623    -632.015     583.953
  H     -652.309    -636.109     580.495
  H     -650.842    -635.565     581.339
  H     -651.430    -634.695     579.890
  H     -645.822    -630.410     577.186
  H     -646.193    -628.954     578.079
  H     -647.417    -629.706     577.085

 3  4  5  6  7  8  9  10  11  12  13  23  28  29  30  31  32 0
 6-311+G(2d,p)
 ****
 33  34 0
 6-311+G(2d,p)
 ****
 1  2  14  15  16  17  18  19  20  21  22  24  25  26  27 0
 3-21G
 ****
 35  36  37  38  39  40  41  42  43  44  45 0
 3-21G
 ****


