%nproc=1
%NoSave
%Mem=1900MB
#P OB98/GEN NMR

erre ene a

0 1
  C     -247.311     320.304     289.001
  O     -247.950     321.558     289.170
  H     -246.317     320.473     288.580
  H     -247.878     319.667     288.316
  H     -247.202     319.808     289.967
  P     -249.517     321.566     289.508
  C     -249.979     321.533     286.971
  O     -250.232     322.190     288.209
  C     -249.839     322.536     285.825
  O     -249.626     321.852     284.573
  C     -251.074     323.395     285.598
  O     -251.372     324.295     286.639
  C     -250.831     323.930     284.197
  O     -249.969     325.064     284.192
  C     -250.121     322.724     283.526
  N     -250.992     322.015     282.601
  C     -251.463     322.748     281.520
  O     -251.201     323.941     281.342
  N     -252.288     322.080     280.654
  C     -252.713     320.791     280.790
  O     -253.469     320.256     279.988
  C     -252.215     320.073     281.971
  C     -251.383     320.707     282.809
  O     -249.898     322.243     290.794
  O     -249.936     320.024     289.446
  H     -249.795     325.291     283.259
  H     -250.813     319.872     289.871
  H     -252.630     322.596     279.858
  H     -252.537     319.052     282.119
  H     -250.998     320.195     283.691
  H     -249.236     323.066     282.969
  H     -251.756     324.224     283.698
  H     -251.949     322.727     285.525
  H     -248.955     323.156     286.024
  H     -250.830     320.868     286.766
  H     -249.073     320.926     287.057
  P     -252.786     324.374     287.371
  C     -253.127     326.755     286.344
  O     -253.214     325.921     287.488
  O     -252.974     323.502     288.567
  O     -253.783     323.839     286.215
  H     -254.503     323.349     286.661
  H     -253.448     327.744     286.598
  H     -253.754     326.365     285.570
  H     -252.114     326.786     286.001

 6  7  8  9  10  11  12  13  14  15  16  26  31  32  33  34  35 0
 6-311+G(2d,p)
 ****
 36  37 0
 6-311+G(2d,p)
 ****
 1  2  3  4  5  17  18  19  20  21  22  23  24  25 0
 3-21G
 ****
 27  28  29  30  38  39  40  41  42  43  44  45 0
 3-21G
 ****


