%nproc=1
%NoSave
%Mem=1900MB
#P OB98/GEN NMR

erre ene a

0 1
  C     -437.901      11.786     129.131
  O     -436.658      11.274     129.573
  H     -437.966      11.724     128.042
  H     -438.702      11.183     129.567
  H     -438.022      12.819     129.456
  P     -435.350      12.021     129.019
  C     -434.999      13.394     131.187
  O     -435.263      13.431     129.792
  C     -435.060      14.803     131.768
  O     -434.123      15.639     131.040
  C     -436.452      15.459     131.673
  O     -436.843      15.994     132.944
  C     -436.253      16.611     130.706
  O     -437.048      17.747     131.021
  C     -434.763      16.901     130.832
  N     -433.802      21.437     128.713
  C     -433.969      21.071     130.003
  N     -434.128      19.835     130.513
  C     -434.063      18.910     129.536
  C     -433.877      19.129     128.180
  C     -433.765      20.469     127.773
  N     -433.650      20.844     126.453
  N     -433.878      17.934     127.486
  C     -434.107      17.008     128.401
  N     -434.242      17.560     129.650
  O     -435.766      12.433     127.527
  O     -434.110      11.195     129.035
  H     -436.686      18.504     130.524
  H     -435.159      11.997     126.902
  H     -433.987      21.887     130.726
  H     -434.231      15.952     128.209
  H     -434.545      17.537     131.701
  H     -436.509      16.278     129.694
  H     -437.221      14.767     131.317
  H     -434.725      14.767     132.810
  H     -433.998      12.982     131.358
  H     -433.692      21.827     126.240
  H     -433.729      20.135     125.742
  H     -435.736      12.744     131.671
  P     -438.219      15.428     133.560
  C     -437.052      14.142     135.497
  O     -437.883      14.060     134.346
  O     -439.021      14.942     132.266
  O     -438.988      16.434     134.337
  H     -439.887      15.383     132.226
  H     -436.917      13.164     135.910
  H     -437.513      14.777     136.225
  H     -436.101      14.547     135.222

 6  7  8  9  10  11  12  13  14  15  25  28  32  33  34  35 0
 6-311+G(2d,p)
 ****
 36  39  40 0
 6-311+G(2d,p)
 ****
 1  2  3  4  5  16  17  18  19  20  21  22  23  24 0
 3-21G
 ****
 26  27  29  30  31  37  38  41  42  43  44  45  46  47  48 0
 3-21G
 ****


