%nproc=1
%NoSave
%Mem=1900MB
#P OB98/GEN NMR

erre ene a

0 1
  C     -650.778    -554.715     165.105
  O     -650.092    -555.826     165.647
  H     -650.098    -553.853     165.095
  H     -651.641    -554.469     165.724
  H     -651.094    -554.912     164.078
  P     -650.793    -557.263     165.602
  C     -649.307    -558.093     163.658
  O     -650.628    -557.825     164.110
  C     -649.259    -558.171     162.131
  O     -649.845    -556.935     161.588
  C     -647.841    -558.289     161.540
  O     -647.949    -559.021     160.315
  C     -647.506    -556.822     161.283
  O     -646.359    -556.653     160.505
  C     -648.849    -556.358     160.704
  N     -649.028    -554.921     160.604
  C     -648.830    -554.322     159.360
  O     -648.529    -554.935     158.338
  N     -649.012    -552.959     159.316
  C     -649.360    -552.156     160.369
  O     -649.524    -550.951     160.257
  C     -649.542    -552.837     161.662
  C     -649.374    -554.174     161.724
  O     -652.178    -557.326     166.152
  O     -649.791    -558.198     166.436
  H     -650.145    -558.338     167.337
  H     -646.171    -555.687     160.425
  H     -648.870    -552.506     158.423
  H     -649.815    -552.248     162.514
  H     -649.523    -554.709     162.654
  H     -649.002    -556.810     159.709
  H     -647.294    -556.319     162.239
  H     -647.142    -558.802     162.215
  H     -649.898    -558.992     161.791
  H     -649.000    -559.064     164.083
  H     -648.631    -557.310     164.016
  P     -647.677    -560.594     160.197
  C     -650.196    -561.056     159.784
  O     -649.050    -561.361     160.552
  O     -646.506    -561.076     160.979
  O     -647.491    -560.882     158.624
  H     -646.935    -561.680     158.500
  H     -651.024    -561.638     160.132
  H     -650.007    -561.284     158.756
  H     -650.425    -560.015     159.882

 6  7  8  9  10  11  12  13  14  15  16  27  31  32  33  34  35 0
 6-311+G(2d,p)
 ****
 36  37 0
 6-311+G(2d,p)
 ****
 1  2  3  4  5  17  18  19  20  21  22  23  24  25 0
 3-21G
 ****
 26  28  29  30  38  39  40  41  42  43  44  45 0
 3-21G
 ****


