%nproc=1
%NoSave
%Mem=1900MB
#P OB98/GEN NMR

erre ene a

0 1
  C     -238.993     -22.114    -109.588
  O     -240.038     -21.233    -110.003
  P     -240.992     -20.651    -108.850
  C     -241.748     -18.449    -109.991
  O     -242.124     -19.741    -109.535
  C     -241.271     -18.474    -111.449
  O     -242.256     -19.112    -112.306
  C     -241.000     -17.084    -112.027
  O     -239.912     -17.206    -112.946
  C     -242.265     -16.786    -112.808
  O     -242.039     -15.779    -113.793
  C     -242.595     -18.184    -113.358
  N     -243.988     -18.324    -113.774
  C     -244.355     -17.725    -114.981
  O     -243.537     -17.052    -115.613
  N     -245.645     -17.864    -115.427
  C     -246.509     -18.502    -114.700
  N     -247.773     -18.602    -115.194
  C     -246.184     -19.099    -113.392
  C     -244.917     -18.975    -112.998
  O     -240.058     -19.594    -108.095
  O     -241.502     -21.696    -107.912
  H     -241.883     -14.929    -113.329
  H     -240.092     -19.747    -107.133
  H     -246.943     -19.603    -112.812
  H     -244.581     -19.382    -112.055
  H     -241.962     -18.416    -114.224
  H     -243.056     -16.442    -112.133
  H     -240.761     -16.334    -111.268
  H     -240.357     -19.077    -111.496
  H     -247.957     -18.186    -116.100
  H     -240.948     -18.053    -109.362
  H     -248.526     -19.074    -114.714
  H     -242.596     -17.768    -109.867
  P     -238.426     -16.957    -112.401
  C     -237.320     -18.407    -114.211
  O     -237.486     -17.101    -113.695
  O     -238.127     -18.339    -111.640
  O     -238.178     -15.785    -111.514
  H     -237.263     -18.288    -111.195
  H     -236.768     -18.344    -115.151
  H     -238.295     -18.868    -114.404
  H     -236.747     -19.017    -113.508
  H     -238.433     -22.430    -110.443
  H     -239.418     -22.969    -109.104
  H     -238.346     -21.603    -108.906

 3  4  5  6  7  8  9  10  11  12  13  21  23  27  28  29  30  32 0
 6-311+G(2d,p)
 ****
 34  35 0
 6-311+G(2d,p)
 ****
 1  2  14  15  16  17  18  19  20  22  24  25  26 0
 3-21G
 ****
 31  33  36  37  38  39  40  41  42  43  44  45  46 0
 3-21G
 ****


