%nproc=1
%NoSave
%Mem=1900MB
#P OB98/GEN NMR

erre ene a

0 1
  C       81.207     -11.781     349.456
  O       80.528     -13.019     349.485
  H       80.467     -10.978     349.399
  H       81.861     -11.718     348.583
  H       81.793     -11.648     350.371
  P       81.396     -14.366     349.454
  C       82.001     -14.640     351.953
  O       81.188     -15.077     350.875
  C       81.562     -15.297     353.269
  O       80.292     -14.719     353.685
  C       81.358     -16.816     353.164
  O       81.653     -17.380     354.448
  C       79.870     -16.899     352.870
  O       79.380     -18.204     353.055
  C       79.345     -15.802     353.803
  N       77.993     -15.386     353.470
  C       76.987     -16.332     353.676
  O       77.266     -17.452     354.104
  N       75.693     -15.997     353.364
  C       75.438     -14.844     352.828
  N       74.139     -14.584     352.529
  C       76.481     -13.839     352.538
  C       77.723     -14.169     352.887
  O       82.818     -14.213     349.032
  O       80.592     -15.321     348.450
  H       78.439     -18.267     352.774
  H       81.056     -15.367     347.595
  H       76.217     -12.902     352.073
  H       78.559     -13.497     352.712
  H       79.358     -16.138     354.848
  H       79.669     -16.633     351.829
  H       81.984     -17.282     352.396
  H       82.296     -15.049     354.048
  H       73.456     -15.305     352.734
  H       81.893     -13.551     352.025
  H       73.825     -13.730     352.089
  H       83.051     -14.875     351.755
  P       82.389     -18.791     354.635
  C       84.876     -18.364     354.102
  O       83.898     -18.542     355.121
  O       82.269     -19.697     353.454
  O       81.693     -19.455     355.919
  H       81.702     -20.425     355.819
  H       85.835     -18.208     354.551
  H       84.619     -17.514     353.505
  H       84.910     -19.237     353.484

 6  7  8  9  10  11  12  13  14  15  16  26  30  31  32  33  35 0
 6-311+G(2d,p)
 ****
 37  38 0
 6-311+G(2d,p)
 ****
 1  2  3  4  5  17  18  19  20  21  22  23  24  25 0
 3-21G
 ****
 27  28  29  34  36  39  40  41  42  43  44  45  46 0
 3-21G
 ****


