%nproc=1
%NoSave
%Mem=1900MB
#P OB98/GEN NMR

erre ene a

0 1
  C     1511.931     908.275    -811.801
  O     1512.218     908.269    -810.396
  P     1513.488     907.400    -809.948
  C     1514.954     909.444    -809.311
  O     1514.807     908.319    -810.147
  C     1516.425     909.783    -809.084
  O     1517.145     908.626    -808.549
  C     1517.170     910.192    -810.363
  O     1518.143     911.182    -809.991
  C     1517.849     908.895    -810.775
  O     1518.893     909.098    -811.724
  C     1518.276     908.397    -809.390
  N     1521.919     905.058    -810.712
  C     1521.819     906.405    -810.844
  N     1520.820     907.230    -810.466
  C     1519.826     906.515    -809.904
  C     1519.786     905.135    -809.687
  C     1520.897     904.393    -810.128
  N     1520.984     903.027    -809.997
  N     1518.580     904.784    -809.081
  C     1517.902     905.914    -809.008
  N     1518.644     906.987    -809.394
  O     1513.613     906.299    -811.099
  O     1513.345     906.797    -808.597
  H     1519.604     909.617    -811.315
  H     1513.219     905.466    -810.814
  H     1522.680     906.895    -811.306
  H     1516.882     906.012    -808.679
  H     1519.125     908.949    -808.996
  H     1517.120     908.233    -811.239
  H     1516.514     910.622    -811.140
  H     1516.494     910.593    -808.335
  H     1514.480     909.260    -808.342
  H     1521.827     902.588    -810.348
  H     1520.237     902.514    -809.580
  H     1514.422     910.308    -809.741
  P     1517.707     912.734    -809.997
  C     1518.605     912.930    -807.608
  O     1517.475     913.105    -808.456
  O     1516.178     912.616    -810.528
  O     1518.569     913.645    -810.827
  H     1515.716     911.970    -810.016
  H     1518.339     913.308    -806.606
  H     1519.460     913.526    -807.988
  H     1518.868     911.884    -807.548
  H     1511.069     908.882    -811.986
  H     1511.740     907.275    -812.130
  H     1512.769     908.673    -812.335

 3  4  5  6  7  8  9  10  11  12  22  25  29  30  31  32 0
 6-311+G(2d,p)
 ****
 33  36  37 0
 6-311+G(2d,p)
 ****
 1  2  13  14  15  16  17  18  19  20  21  23  24  26 0
 3-21G
 ****
 27  28  34  35  38  39  40  41  42  43  44  45  46  47  48 0
 3-21G
 ****


