%nproc=1
%NoSave
%Mem=1900MB
#P OB98/GEN NMR

erre ene a

0 1
  C     -456.601    -538.962       3.365
  O     -456.706    -539.998       2.403
  H     -457.288    -539.173       4.189
  H     -456.879    -538.000       2.912
  H     -455.582    -538.911       3.757
  P     -455.814    -539.834       1.079
  C     -454.005    -541.514       1.881
  O     -454.301    -540.174       1.507
  C     -453.458    -542.288       0.687
  O     -452.324    -541.610       0.105
  C     -453.009    -543.706       1.011
  O     -454.107    -544.606       1.008
  C     -452.028    -543.980      -0.122
  O     -452.723    -544.336      -1.334
  C     -451.341    -542.615      -0.281
  N     -446.394    -543.632      -0.074
  C     -447.347    -544.025      -0.994
  N     -446.932    -544.833      -1.991
  N     -448.610    -543.669      -0.929
  C     -448.894    -542.909       0.145
  C     -448.042    -542.454       1.132
  C     -446.637    -542.813       1.024
  O     -445.737    -542.430       1.762
  N     -448.708    -541.686       2.060
  C     -449.969    -541.715       1.656
  N     -450.125    -542.442       0.505
  O     -455.779    -538.249       0.844
  O     -456.319    -540.547      -0.127
  H     -453.425    -543.676      -1.506
  H     -455.823    -538.072      -0.116
  H     -445.435    -543.908      -0.187
  H     -450.793    -541.212       2.156
  H     -451.068    -542.405      -1.325
  H     -451.358    -544.812       0.108
  H     -446.068    -545.364      -1.926
  H     -452.471    -543.745       1.967
  H     -447.641    -545.174      -2.626
  H     -454.248    -542.302      -0.081
  H     -454.924    -541.993       2.240
  H     -453.263    -541.511       2.686
  P     -454.086    -545.835       2.035
  C     -455.797    -544.575       3.531
  O     -454.574    -545.299       3.465
  O     -452.517    -546.098       2.247
  O     -454.774    -547.067       1.548
  H     -452.245    -546.903       1.761
  H     -455.986    -544.286       4.544
  H     -456.597    -545.193       3.181
  H     -455.727    -543.701       2.918

 6  7  8  9  10  11  12  13  14  15  26  29  33  34 0
 6-311+G(2d,p)
 ****
 36  38  39  40  41 0
 6-311+G(2d,p)
 ****
 1  2  3  4  5  16  17  18  19  20  21  22  23  24  25 0
 3-21G
 ****
 27  28  30  31  32  35  37  42  43  44  45  46  47 0
 3-21G
 ****
 48  49 0
 3-21G
 ****


