%nproc=1
%NoSave
%Mem=1900MB
#P OB98/GEN NMR

erre ene a

0 1
  C       33.331    -145.367     447.298
  O       32.184    -145.778     446.559
  P       31.387    -144.679     445.708
  C       32.576    -144.515     443.348
  O       31.521    -144.999     444.150
  C       32.159    -144.581     441.871
  O       33.021    -143.743     441.069
  C       32.236    -145.988     441.283
  O       31.049    -146.723     441.514
  C       32.499    -145.704     439.819
  O       31.281    -145.312     439.159
  C       33.473    -144.505     439.914
  N       34.915    -144.790     440.070
  C       35.710    -144.981     438.943
  O       35.294    -144.935     437.788
  N       37.039    -145.222     439.177
  C       37.676    -145.125     440.378
  O       38.880    -145.293     440.520
  C       36.819    -144.774     441.515
  C       35.506    -144.637     441.317
  O       32.252    -143.350     445.900
  O       29.964    -144.488     446.127
  H       30.591    -145.943     439.427
  H       31.738    -142.676     446.383
  H       37.614    -145.436     438.377
  H       37.292    -144.639     442.479
  H       34.863    -144.378     442.155
  H       33.373    -143.857     439.035
  H       32.852    -146.592     439.300
  H       33.105    -146.517     441.684
  H       31.136    -144.196     441.781
  H       33.486    -145.099     443.505
  H       32.807    -143.483     443.630
  P       31.131    -148.200     442.128
  C       30.367    -148.134     444.575
  O       29.962    -148.277     443.227
  O       32.479    -148.645     442.585
  O       30.558    -149.129     440.952
  H       31.295    -149.506     440.416
  H       29.475    -148.043     445.202
  H       30.979    -147.235     444.699
  H       30.933    -149.015     444.890
  H       33.748    -146.210     447.808
  H       33.047    -144.622     448.012
  H       34.060    -144.960     446.628

 3  4  5  6  7  8  9  10  11  12  13  23  28  29  30  31  32 0
 6-311+G(2d,p)
 ****
 33  34 0
 6-311+G(2d,p)
 ****
 1  2  14  15  16  17  18  19  20  21  22  24  25  26  27 0
 3-21G
 ****
 35  36  37  38  39  40  41  42  43  44  45 0
 3-21G
 ****


