%nproc=1
%NoSave
%Mem=1900MB
#P OB98/GEN NMR

erre ene a

0 1
  C     -185.623    -216.724    -271.634
  O     -185.337    -216.251    -272.955
  P     -183.842    -216.052    -273.504
  C     -183.317    -218.529    -274.008
  O     -182.994    -217.382    -273.225
  C     -182.062    -219.193    -274.582
  O     -181.178    -219.616    -273.527
  C     -182.325    -220.442    -275.414
  O     -182.823    -220.108    -276.696
  C     -180.942    -221.089    -275.418
  O     -180.096    -220.501    -276.420
  C     -180.430    -220.751    -274.001
  N     -180.534    -221.880    -273.085
  C     -179.551    -222.874    -273.207
  O     -178.698    -222.803    -274.088
  N     -179.587    -223.939    -272.336
  C     -180.556    -224.042    -271.478
  N     -180.533    -225.115    -270.638
  C     -181.655    -223.065    -271.378
  C     -181.580    -222.023    -272.204
  O     -183.182    -214.799    -273.033
  O     -183.986    -216.037    -275.104
  H     -180.125    -219.535    -276.279
  H     -183.291    -215.466    -275.482
  H     -182.459    -223.202    -270.671
  H     -182.342    -221.249    -272.192
  H     -179.382    -220.428    -274.040
  H     -180.982    -222.165    -275.618
  H     -183.032    -221.099    -274.889
  H     -181.528    -218.440    -275.181
  H     -179.759    -225.762    -270.725
  H     -183.968    -218.212    -274.829
  H     -181.238    -225.286    -269.932
  H     -183.870    -219.240    -273.379
  P     -183.538    -221.231    -277.591
  C     -185.577    -221.627    -276.085
  O     -184.379    -222.174    -276.606
  O     -182.648    -221.951    -278.552
  O     -184.682    -220.423    -278.369
  H     -184.824    -220.842    -279.240
  H     -186.236    -222.447    -275.787
  H     -186.090    -221.015    -276.834
  H     -185.347    -221.021    -275.208
  H     -186.683    -216.775    -271.495
  H     -185.201    -216.052    -270.916
  H     -185.199    -217.698    -271.504

 3  4  5  6  7  8  9  10  11  12  13  23  27  28  29  30  32 0
 6-311+G(2d,p)
 ****
 34  35 0
 6-311+G(2d,p)
 ****
 1  2  14  15  16  17  18  19  20  21  22  24  25  26 0
 3-21G
 ****
 31  33  36  37  38  39  40  41  42  43  44  45  46 0
 3-21G
 ****


