%nproc=1
%NoSave
%Mem=1900MB
#P OB98/GEN NMR

erre ene a

0 1
  C     -872.703    -128.231    -635.231
  O     -873.653    -128.159    -636.279
  P     -874.184    -126.700    -636.696
  C     -874.060    -127.278    -639.230
  O     -873.596    -126.434    -638.177
  C     -873.292    -127.006    -640.511
  O     -871.895    -127.330    -640.333
  C     -873.744    -127.822    -641.711
  O     -874.902    -127.266    -642.323
  C     -872.532    -127.708    -642.631
  O     -872.579    -126.448    -643.334
  C     -871.363    -127.715    -641.622
  N     -867.526    -130.614    -643.219
  C     -867.873    -129.326    -643.576
  N     -867.059    -128.700    -644.472
  N     -868.910    -128.691    -643.104
  C     -869.610    -129.408    -642.200
  C     -869.368    -130.701    -641.772
  C     -868.241    -131.407    -642.328
  O     -867.928    -132.573    -642.107
  N     -870.293    -131.088    -640.830
  C     -871.062    -130.036    -640.650
  N     -870.710    -128.995    -641.496
  O     -873.307    -125.715    -635.782
  O     -875.645    -126.475    -636.509
  H     -873.276    -126.525    -644.004
  H     -873.772    -124.879    -635.645
  H     -866.704    -131.051    -643.612
  H     -871.877    -129.965    -639.942
  H     -870.607    -126.961    -641.893
  H     -872.482    -128.501    -643.379
  H     -866.171    -129.084    -644.761
  H     -873.893    -128.881    -641.444
  H     -867.270    -127.738    -644.713
  H     -873.361    -125.926    -640.728
  H     -875.118    -127.081    -639.402
  H     -873.937    -128.329    -638.921
  P     -876.094    -128.307    -642.697
  C     -877.957    -127.725    -640.988
  O     -876.859    -128.560    -641.317
  O     -875.300    -129.677    -642.956
  O     -876.917    -127.887    -643.864
  H     -875.810    -130.251    -643.544
  H     -878.542    -127.455    -641.884
  H     -877.607    -126.811    -640.508
  H     -878.618    -128.264    -640.304
  H     -872.439    -129.253    -635.059
  H     -873.124    -127.816    -634.339
  H     -871.829    -127.678    -635.504

 3  4  5  6  7  8  9  10  11  12  23  26  30  31  33  0
 6-311+G(2d,p)
 ****
 35  36  37  38 0
 6-311+G(2d,p)
 ****
 1  2  13  14  15  16  17  18  19  20  21  22  24  25  27  28  29 0
 3-21G
 ****
 32  34  39  40  41  42  43  44  45  46  47  48  49 0
 3-21G
 ****


