%nproc=1
%NoSave
%Mem=1900MB
#P OB98/GEN NMR

erre ene a

0 1
  C       -9.308      52.700     -30.188
  O       -9.171      54.086     -30.426
  H       -8.311      52.259     -30.112
  H       -9.838      52.223     -31.016
  H       -9.843      52.518     -29.251
  P      -10.486      55.002     -30.448
  C      -10.551      54.775     -33.015
  O      -11.277      54.648     -31.797
  C      -11.450      54.417     -34.195
  O      -11.931      53.059     -34.064
  C      -12.695      55.291     -34.310
  O      -12.371      56.565     -34.829
  C      -13.560      54.423     -35.214
  O      -13.159      54.549     -36.587
  C      -13.237      53.006     -34.683
  N      -14.246      52.508     -33.744
  C      -15.231      51.687     -34.279
  O      -15.281      51.381     -35.469
  N      -16.194      51.259     -33.402
  C      -16.310      51.643     -32.097
  O      -17.302      51.415     -31.412
  C      -15.200      52.451     -31.568
  C      -14.241      52.854     -32.405
  O      -10.266      56.457     -30.208
  O      -11.413      54.355     -29.311
  H      -11.353      54.895     -28.500
  H      -13.891      54.180     -37.122
  H      -16.939      50.700     -33.790
  H      -15.222      52.723     -30.519
  H      -13.431      53.475     -32.043
  H      -13.164      52.292     -35.514
  H      -14.616      54.694     -35.161
  H      -13.184      55.380     -33.333
  H      -10.848      54.476     -35.113
  H       -9.696      54.089     -32.985
  H      -10.180      55.802     -33.105
  P      -12.956      57.900     -34.169
  C      -14.576      58.347     -36.105
  O      -14.451      58.109     -34.710
  O      -12.080      59.105     -34.294
  O      -13.181      57.515     -32.631
  H      -12.728      58.174     -32.067
  H      -15.609      58.471     -36.354
  H      -14.176      57.515     -36.646
  H      -14.037      59.234     -36.365

 6  7  8  9  10  11  12  13  14  15  16  27  31  32  33  34  35 0
 6-311+G(2d,p)
 ****
 36  37 0
 6-311+G(2d,p)
 ****
 1  2  3  4  5  17  18  19  20  21  22  23  24  25 0
 3-21G
 ****
 26  28  29  30  38  39  40  41  42  43  44  45 0
 3-21G
 ****


