%nproc=1
%NoSave
%Mem=1900MB
#P OB98/GEN NMR

erre ene a

0 1
  C      -45.873     246.296     656.812
  O      -44.861     245.883     657.712
  H      -45.937     247.388     656.796
  H      -45.620     245.945     655.807
  H      -46.835     245.869     657.108
  P      -45.025     246.329     659.245
  C      -43.502     248.400     658.826
  O      -44.770     247.919     659.250
  C      -42.640     248.690     660.051
  O      -41.420     249.349     659.655
  C      -43.301     249.612     661.068
  O      -44.194     248.927     661.935
  C      -42.082     250.116     661.829
  O      -41.621     249.100     662.734
  C      -41.070     250.314     660.689
  N      -40.329     255.298     661.639
  C      -40.169     254.200     662.403
  N      -40.366     252.907     662.073
  C      -40.761     252.797     660.794
  C      -40.966     253.832     659.888
  C      -40.733     255.138     660.357
  N      -40.931     256.265     659.588
  N      -41.396     253.333     658.672
  C      -41.432     252.019     658.841
  N      -41.093     251.655     660.119
  O      -43.711     245.754     659.954
  O      -46.289     245.905     659.918
  H      -41.401     248.318     662.193
  H      -43.814     245.773     660.928
  H      -39.836     254.384     663.425
  H      -41.712     251.302     658.081
  H      -40.038     250.114     661.004
  H      -42.295     251.009     662.425
  H      -43.792     250.464     660.582
  H      -42.364     247.731     660.510
  H      -43.647     249.328     658.255
  H      -40.883     257.159     660.052
  H      -41.371     256.163     658.682
  H      -43.019     247.657     658.189
  P      -45.496     249.723     662.439
  C      -44.444     250.146     664.780
  O      -44.994     250.719     663.599
  O      -46.306     248.603     663.249
  O      -46.313     250.348     661.351
  H      -47.271     248.759     663.177
  H      -44.157     250.926     665.454
  H      -43.585     249.560     664.526
  H      -45.176     249.521     665.248

 6  7  8  9  10  11  12  13  14  15  25  28  32  33  34  35 0
 6-311+G(2d,p)
 ****
 36  39  40 0
 6-311+G(2d,p)
 ****
 1  2  3  4  5  16  17  18  19  20  21  22  23  24 0
 3-21G
 ****
 26  27  29  30  31  37  38  41  42  43  44  45  46  47 0
 3-21G
 ****
 48 0
 3-21G
 ****


