%nproc=1
%NoSave
%Mem=1900MB
#P OB98/GEN NMR

erre ene a

0 1
  C     -261.471    -510.107     355.865
  O     -261.263    -509.289     357.004
  H     -260.589    -510.073     355.220
  H     -261.633    -511.138     356.197
  H     -262.353    -509.774     355.310
  P     -261.184    -507.704     356.753
  C     -262.115    -507.148     359.116
  O     -261.027    -507.038     358.206
  C     -261.909    -506.212     360.316
  O     -260.786    -506.689     361.096
  C     -261.609    -504.761     359.909
  O     -262.268    -503.875     360.824
  C     -260.100    -504.650     360.080
  O     -259.684    -503.308     360.307
  C     -259.863    -505.592     361.254
  N     -255.019    -504.319     362.287
  C     -256.189    -503.656     362.455
  N     -257.437    -504.066     362.153
  C     -257.419    -505.330     361.684
  C     -256.307    -506.134     361.461
  C     -255.059    -505.575     361.777
  N     -253.866    -506.232     361.581
  N     -256.699    -507.356     360.934
  C     -258.013    -507.288     360.842
  N     -258.491    -506.080     361.279
  O     -262.693    -507.350     356.336
  O     -260.198    -507.259     355.727
  H     -260.000    -502.760     359.555
  H     -262.834    -507.582     355.398
  H     -256.107    -502.650     362.872
  H     -258.657    -508.069     360.464
  H     -260.054    -505.113     362.226
  H     -259.603    -505.017     359.170
  H     -261.928    -504.528     358.892
  H     -262.798    -506.270     360.960
  H     -262.177    -508.186     359.470
  H     -253.016    -505.737     361.780
  H     -253.871    -507.147     361.141
  H     -263.046    -506.887     358.598
  P     -263.079    -502.642     360.186
  C     -265.352    -503.231     361.280
  O     -264.305    -502.279     361.151
  O     -263.779    -503.284     358.894
  O     -262.198    -501.488     359.810
  H     -263.616    -502.728     358.110
  H     -266.095    -502.855     361.951
  H     -264.955    -504.147     361.664
  H     -265.793    -503.408     360.321

 6  7  8  9  10  11  12  13  14  15  25  28  32  33  34  35 0
 6-311+G(2d,p)
 ****
 36  39  40 0
 6-311+G(2d,p)
 ****
 1  2  3  4  5  16  17  18  19  20  21  22  23  24 0
 3-21G
 ****
 26  27  29  30  31  37  38  41  42  43  44  45  46  47 0
 3-21G
 ****
 48 0
 3-21G
 ****


