%nproc=1
%NoSave
%Mem=1900MB
#P OB98/GEN NMR

erre ene a

0 1
  C      251.804       0.315    -726.794
  O      250.689       1.047    -727.263
  H      252.384      -0.029    -727.653
  H      251.471      -0.555    -726.220
  H      252.435       0.951    -726.169
  P      249.642       1.546    -726.151
  C      250.459       4.020    -726.284
  O      250.358       2.835    -725.509
  C      249.887       5.202    -725.505
  O      248.445       5.133    -725.462
  C      250.330       5.270    -724.046
  O      251.646       5.773    -723.879
  C      249.287       6.230    -723.502
  O      249.592       7.570    -723.931
  C      248.013       5.698    -724.191
  N      247.308       4.691    -723.395
  C      246.568       5.160    -722.303
  O      246.525       6.361    -722.044
  N      245.914       4.252    -721.506
  C      245.976       2.988    -721.783
  N      245.314       2.134    -720.955
  C      246.734       2.449    -722.926
  C      247.368       3.345    -723.683
  O      249.782       0.452    -724.992
  O      248.246       1.775    -726.623
  H      248.798       8.105    -723.754
  H      249.284       0.746    -724.189
  H      246.767       1.382    -723.111
  H      247.945       3.023    -724.543
  H      247.317       6.514    -724.416
  H      249.241       6.249    -722.414
  H      250.218       4.303    -723.545
  H      250.156       6.117    -726.046
  H      244.851       2.531    -720.144
  H      249.894       3.872    -727.211
  H      245.424       1.131    -720.997
  H      251.503       4.219    -726.532
  P      252.403       5.417    -722.509
  C      253.252       3.062    -723.230
  O      252.401       3.820    -722.379
  O      251.365       5.883    -721.390
  O      253.740       6.071    -722.342
  H      251.828       6.222    -720.599
  H      253.132       2.020    -723.018
  H      254.270       3.345    -723.061
  H      252.994       3.250    -724.251

 6  7  8  9  10  11  12  13  14  15  16  26  30  31  32  33  35 0
 6-311+G(2d,p)
 ****
 37  38 0
 6-311+G(2d,p)
 ****
 1  2  3  4  5  17  18  19  20  21  22  23  24  25 0
 3-21G
 ****
 27  28  29  34  36  39  40  41  42  43  44  45  46 0
 3-21G
 ****


