%nproc=1
%NoSave
%Mem=1900MB
#P OB98/GEN NMR

erre ene a

0 1
  C      289.172    -356.422     373.905
  O      289.830    -356.793     372.705
  P      290.836    -355.736     372.044
  C      289.175    -354.934     370.190
  O      289.938    -354.600     371.345
  C      288.328    -353.728     369.766
  O      287.571    -353.229     370.895
  C      289.161    -352.551     369.277
  O      289.601    -352.750     367.930
  C      288.168    -351.403     369.426
  O      287.289    -351.324     368.293
  C      287.408    -351.804     370.700
  N      287.823    -351.048     371.873
  C      286.957    -350.017     372.280
  O      285.926    -349.751     371.676
  N      287.366    -349.300     373.374
  C      288.539    -349.453     374.057
  O      288.865    -348.743     374.988
  C      289.421    -350.530     373.568
  C      289.029    -351.263     372.515
  O      291.471    -356.535     370.810
  O      291.883    -355.214     372.970
  H      286.952    -352.229     368.133
  H      292.407    -356.271     370.693
  H      286.743    -348.574     373.692
  H      290.359    -350.692     374.089
  H      289.674    -352.049     372.128
  H      286.322    -351.653     370.560
  H      288.675    -350.427     369.496
  H      290.012    -352.385     369.936
  H      287.620    -354.062     368.989
  H      288.525    -355.785     370.422
  H      289.857    -355.233     369.387
  P      291.011    -352.125     367.530
  C      290.063    -350.120     366.146
  O      290.729    -350.556     367.298
  O      291.203    -352.723     366.056
  O      292.101    -352.465     368.494
  H      290.361    -352.837     365.597
  H      289.288    -350.835     365.823
  H      290.778    -349.989     365.328
  H      289.579    -349.157     366.351
  H      288.538    -357.222     374.226
  H      288.582    -355.546     373.732
  H      289.900    -356.218     374.663

 3  4  5  6  7  8  9  10  11  12  13  23  28  29  30  31  32 0
 6-311+G(2d,p)
 ****
 33  34 0
 6-311+G(2d,p)
 ****
 1  2  14  15  16  17  18  19  20  21  22  24  25  26 0
 3-21G
 ****
 27  35  36  37  38  39  40  41  42  43  44  45 0
 3-21G
 ****


