%nproc=1
%NoSave
%Mem=1900MB
#P OB98/GEN NMR

erre ene a

0 1
  C      120.166     -53.343     -36.987
  O      119.686     -53.593     -38.295
  P      120.369     -52.897     -39.563
  C      119.139     -50.693     -39.129
  O      120.408     -51.315     -39.285
  C      118.993     -49.488     -40.058
  O      120.052     -48.536     -39.769
  C      119.073     -49.820     -41.555
  O      118.196     -48.909     -42.227
  C      120.515     -49.483     -41.896
  O      120.717     -49.257     -43.286
  C      120.722     -48.255     -41.016
  N      124.139     -44.630     -39.865
  C      122.810     -44.571     -40.097
  N      121.975     -45.578     -40.424
  C      122.639     -46.743     -40.500
  C      123.997     -46.952     -40.320
  C      124.765     -45.827     -39.970
  N      126.114     -45.875     -39.695
  N      124.312     -48.281     -40.542
  C      123.168     -48.856     -40.847
  N      122.120     -47.979     -40.770
  O      119.797     -53.281     -40.887
  O      121.910     -53.322     -39.455
  H      121.581     -48.818     -43.404
  H      122.114     -53.999     -40.129
  H      122.357     -43.588     -40.003
  H      123.039     -49.892     -41.129
  H      120.271     -47.355     -41.449
  H      121.169     -50.308     -41.590
  H      118.815     -50.855     -41.796
  H      118.041     -48.992     -39.826
  H      119.052     -50.359     -38.089
  H      126.536     -45.038     -39.325
  H      126.545     -46.777     -39.506
  H      118.343     -51.420     -39.325
  P      117.446     -49.365     -43.568
  C      119.317     -48.249     -44.911
  O      118.561     -49.430     -44.715
  O      116.218     -48.588     -43.911
  O      117.110     -50.912     -43.302
  H      116.419     -51.207     -43.924
  H      118.743     -47.548     -45.520
  H      120.242     -48.502     -45.436
  H      119.569     -47.779     -43.957
  H      119.583     -53.896     -36.281
  H      120.088     -52.298     -36.772
  H      121.190     -53.646     -36.919

 3  4  5  6  7  8  9  10  11  12  22  25  29  30  31  32 0
 6-311+G(2d,p)
 ****
 33  36  37 0
 6-311+G(2d,p)
 ****
 1  2  13  14  15  16  17  18  19  20  21  23  24  26 0
 3-21G
 ****
 27  28  34  35  38  39  40  41  42  43  44  45  46  47  48 0
 3-21G
 ****


