%nproc=1
%NoSave
%Mem=1900MB
#P OB98/GEN NMR

erre ene a

0 1
  C     -974.565    -708.400    -304.915
  O     -973.500    -708.147    -305.810
  H     -975.147    -709.263    -305.256
  H     -974.154    -708.623    -303.927
  H     -975.214    -707.520    -304.840
  P     -973.894    -707.834    -307.332
  C     -972.984    -705.401    -307.510
  O     -974.121    -706.247    -307.389
  C     -973.108    -704.569    -308.781
  O     -973.126    -705.432    -309.942
  C     -974.387    -703.745    -308.854
  O     -974.298    -702.533    -308.133
  C     -974.476    -703.498    -310.349
  O     -973.550    -702.463    -310.727
  C     -974.032    -704.851    -310.916
  N     -975.606    -708.901    -313.630
  C     -974.422    -708.243    -313.589
  N     -974.076    -707.196    -312.820
  C     -975.095    -706.822    -312.033
  C     -976.356    -707.389    -311.964
  C     -976.604    -708.479    -312.815
  N     -977.817    -709.125    -312.883
  N     -977.145    -706.721    -311.050
  C     -976.365    -705.773    -310.566
  N     -975.130    -705.772    -311.153
  O     -975.377    -708.416    -307.471
  O     -972.958    -708.363    -308.370
  H     -973.885    -701.629    -310.356
  H     -975.629    -708.482    -308.408
  H     -973.654    -708.627    -314.257
  H     -976.652    -705.060    -309.802
  H     -973.480    -704.750    -311.865
  H     -975.471    -703.163    -310.668
  H     -975.262    -704.333    -308.542
  H     -972.223    -703.926    -308.858
  H     -972.083    -706.021    -307.561
  H     -977.943    -709.795    -313.631
  H     -978.610    -708.734    -312.395
  H     -972.923    -704.748    -306.635
  P     -975.675    -701.871    -307.625
  C     -975.561    -701.707    -305.034
  O     -975.965    -702.477    -306.167
  O     -976.773    -702.578    -308.550
  O     -975.724    -700.376    -307.738
  H     -977.522    -701.979    -308.725
  H     -975.816    -702.231    -304.137
  H     -976.061    -700.761    -305.049
  H     -974.503    -701.551    -305.067

 6  7  8  9  10  11  12  13  14  15  25  28  32  33  34  35 0
 6-311+G(2d,p)
 ****
 36  39  40 0
 6-311+G(2d,p)
 ****
 1  2  3  4  5  16  17  18  19  20  21  22  23  24 0
 3-21G
 ****
 26  27  29  30  31  37  38  41  42  43  44  45  46  47 0
 3-21G
 ****
 48 0
 3-21G
 ****


