%nproc=1
%NoSave
%Mem=1900MB
#P OB98/GEN NMR

erre ene a

0 1
  C     -126.735     -28.895     134.055
  O     -127.292     -27.935     134.929
  H     -127.277     -29.837     134.183
  H     -125.684     -29.063     134.305
  H     -126.827     -28.576     133.015
  P     -126.777     -26.421     134.848
  C     -127.700     -25.732     132.539
  O     -127.830     -25.607     133.948
  C     -129.067     -25.617     131.856
  O     -129.900     -26.721     132.294
  C     -129.808     -24.315     132.177
  O     -130.511     -23.877     131.014
  C     -130.796     -24.728     133.251
  O     -131.943     -23.882     133.284
  C     -131.109     -26.169     132.851
  N     -134.559     -26.484     136.531
  C     -134.454     -25.593     135.482
  N     -135.398     -24.628     135.409
  N     -133.506     -25.639     134.582
  C     -132.643     -26.668     134.766
  C     -132.640     -27.616     135.763
  C     -133.683     -27.539     136.764
  O     -133.817     -28.291     137.725
  N     -131.587     -28.487     135.619
  C     -130.958     -28.066     134.538
  N     -131.552     -26.958     133.991
  O     -125.348     -26.262     134.433
  O     -127.029     -25.838     136.315
  H     -132.406     -23.994     132.425
  H     -126.192     -25.760     136.810
  H     -135.302     -26.396     137.201
  H     -130.071     -28.518     134.115
  H     -131.900     -26.231     132.094
  H     -130.312     -24.688     134.235
  H     -136.170     -24.548     136.052
  H     -129.133     -23.528     132.515
  H     -135.363     -23.981     134.631
  H     -128.926     -25.733     130.774
  H     -127.261     -26.711     132.320
  H     -127.027     -24.951     132.167
  P     -130.270     -22.385     130.474
  C     -128.362     -22.889     128.826
  O     -129.709     -22.463     128.970
  O     -129.498     -21.490     131.386
  O     -131.764     -21.839     130.263
  H     -131.782     -20.883     130.471
  H     -128.101     -22.902     127.788
  H     -128.253     -23.872     129.233
  H     -127.717     -22.214     129.348

 6  7  8  9  10  11  12  13  14  15  26  29  33  34 0
 6-311+G(2d,p)
 ****
 36  38  39  40  41 0
 6-311+G(2d,p)
 ****
 1  2  3  4  5  16  17  18  19  20  21  22  23  24  25 0
 3-21G
 ****
 27  28  30  31  32  35  37  42  43  44  45  46  47 0
 3-21G
 ****
 48  49 0
 3-21G
 ****


