%nproc=1
%NoSave
%Mem=1900MB
#P OB98/GEN NMR

erre ene a

0 1
  C       38.342     -35.887      -5.363
  O       39.126     -37.061      -5.318
  P       40.649     -37.075      -5.820
  C       39.750     -37.064      -8.229
  O       40.626     -36.447      -7.298
  C       40.514     -37.609      -9.437
  O       40.925     -36.506     -10.291
  C       41.772     -38.416      -9.084
  O       41.886     -39.438     -10.082
  C       42.875     -37.388      -9.248
  O       44.159     -37.980      -9.403
  C       42.357     -36.598     -10.456
  N       42.986     -35.284     -10.561
  C       44.197     -35.221     -11.255
  O       44.725     -36.252     -11.679
  N       44.809     -34.003     -11.408
  C       44.309     -32.959     -10.825
  N       44.956     -31.778     -11.016
  C       43.103     -33.005      -9.978
  C       42.489     -34.185      -9.902
  O       41.343     -38.390      -5.708
  O       41.338     -35.913      -4.963
  H       44.170     -38.476     -10.251
  H       41.518     -36.225      -4.041
  H       42.755     -32.121      -9.467
  H       41.597     -34.317      -9.305
  H       42.546     -37.147     -11.387
  H       42.910     -36.744      -8.359
  H       41.746     -38.854      -8.084
  H       39.823     -38.230     -10.021
  H       45.771     -31.787     -11.616
  H       39.039     -36.309      -8.578
  H       44.606     -30.894     -10.675
  H       39.179     -37.859      -7.738
  P       42.548     -40.858      -9.749
  C       44.784     -40.283     -10.852
  O       44.128     -40.624      -9.645
  O       42.135     -41.975     -10.650
  O       42.121     -41.146      -8.231
  H       42.261     -42.091      -8.028
  H       45.775     -39.880     -10.617
  H       44.219     -39.530     -11.407
  H       44.903     -41.176     -11.469
  H       37.364     -36.097      -4.984
  H       38.267     -35.547      -6.375
  H       38.801     -35.128      -4.765

 3  4  5  6  7  8  9  10  11  12  13  23  27  28  29  30  32 0
 6-311+G(2d,p)
 ****
 34  35 0
 6-311+G(2d,p)
 ****
 1  2  14  15  16  17  18  19  20  21  22  24  25  26 0
 3-21G
 ****
 31  33  36  37  38  39  40  41  42  43  44  45  46 0
 3-21G
 ****


