%nproc=1
%NoSave
%Mem=1900MB
#P OB98/GEN NMR

erre ene a

0 1
  C      278.936    -894.050     659.627
  O      277.951    -893.250     659.008
  P      276.707    -892.690     659.873
  C      275.155    -893.470     657.967
  O      275.410    -893.500     659.375
  C      273.954    -894.370     657.636
  O      274.326    -895.780     657.743
  C      272.783    -894.200     658.595
  O      272.089    -892.970     658.563
  C      271.966    -895.450     658.269
  O      271.177    -895.270     657.081
  C      273.073    -896.500     657.993
  N      273.227    -897.440     659.107
  C      272.257    -898.430     659.194
  O      271.321    -898.530     658.410
  N      272.358    -899.280     660.258
  C      273.314    -899.210     661.248
  O      273.330    -900.000     662.196
  C      274.322    -898.140     661.106
  C      274.225    -897.300     660.058
  O      276.554    -891.200     659.874
  O      276.971    -893.330     661.333
  H      271.718    -894.790     656.437
  H      276.994    -894.290     661.352
  H      271.660    -900.000     660.355
  H      275.076    -898.080     661.846
  H      274.952    -896.510     659.940
  H      272.863    -897.070     657.084
  H      271.270    -895.720     659.071
  H      273.155    -894.330     659.620
  H      273.664    -894.180     656.593
  H      276.042    -893.840     657.441
  H      274.957    -892.430     657.652
  P      271.093    -892.510     659.731
  C      269.063    -892.200     658.122
  O      269.584    -892.870     659.281
  O      271.316    -891.180     660.340
  O      271.358    -893.640     660.865
  H      271.219    -893.230     661.757
  H      268.039    -892.540     657.997
  H      269.660    -892.480     657.222
  H      269.069    -891.130     658.280
  H      279.676    -894.327     658.905
  H      278.480    -894.932     660.026
  H      279.398    -893.498     660.418

 3  4  5  6  7  8  9  10  11  12  13  23  28  29  30  31  32 0
 6-311+G(2d,p)
 ****
 33  34 0
 6-311+G(2d,p)
 ****
 1  2  14  15  16  17  18  19  20  21  22  24  25  26  27 0
 3-21G
 ****
 35  36  37  38  39  40  41  42  43  44  45 0
 3-21G
 ****


