%nproc=1
%NoSave
%Mem=1900MB
#P OB98/GEN NMR

erre ene a

0 1
  C      835.157    -436.905    -455.392
  O      834.942    -436.495    -454.049
  H      835.768    -436.166    -455.903
  H      834.177    -436.958    -455.889
  H      835.646    -437.877    -455.431
  P      834.411    -437.589    -453.014
  C      834.531    -437.728    -450.419
  O      834.422    -436.892    -451.556
  C      834.552    -436.892    -449.139
  O      835.726    -436.037    -449.144
  C      833.331    -435.979    -448.971
  O      832.963    -435.928    -447.573
  C      833.852    -434.625    -449.373
  O      833.087    -433.551    -448.817
  C      835.279    -434.711    -448.845
  N      837.249    -430.163    -448.054
  C      836.592    -431.012    -447.201
  N      836.360    -430.568    -445.939
  N      836.190    -432.212    -447.532
  C      836.482    -432.542    -448.811
  C      837.124    -431.786    -449.761
  C      837.563    -430.457    -449.380
  O      838.130    -429.622    -450.105
  N      837.193    -432.450    -450.969
  C      836.573    -433.609    -450.739
  N      836.132    -433.688    -449.444
  O      835.624    -438.639    -452.941
  O      833.129    -438.255    -453.385
  H      833.528    -432.723    -449.074
  H      835.470    -439.368    -453.564
  H      837.518    -429.233    -447.742
  H      836.402    -434.367    -451.478
  H      835.334    -434.568    -447.751
  H      833.833    -434.530    -450.454
  H      836.670    -429.673    -445.583
  H      832.456    -436.293    -449.557
  H      835.919    -431.202    -445.284
  H      834.652    -437.576    -448.280
  H      835.477    -438.300    -450.487
  H      833.688    -438.440    -450.406
  P      831.589    -436.620    -447.106
  C      830.374    -437.120    -444.865
  O      831.374    -436.370    -445.553
  O      831.928    -438.199    -447.203
  O      830.432    -436.297    -447.983
  H      831.147    -438.680    -447.469
  H      830.359    -436.833    -443.834
  H      830.596    -438.164    -444.941
  H      829.418    -436.926    -445.304

 6  7  8  9  10  11  12  13  14  15  26  29  33  34 0
 6-311+G(2d,p)
 ****
 36  38  39  40  41 0
 6-311+G(2d,p)
 ****
 1  2  3  4  5  16  17  18  19  20  21  22  23  24  25 0
 3-21G
 ****
 27  28  30  31  32  35  37  42  43  44  45  46  47 0
 3-21G
 ****
 48  49 0
 3-21G
 ****


