%nproc=1
%NoSave
%Mem=1900MB
#P OB98/GEN NMR

erre ene a

0 1
  C       49.372     -48.883     -74.097
  O       48.718     -47.760     -74.662
  P       49.605     -46.507     -75.115
  C       51.721     -46.204     -76.596
  O       50.943     -47.077     -75.793
  C       53.190     -46.254     -76.169
  O       53.355     -45.514     -74.922
  C       53.723     -47.674     -75.931
  O       55.105     -47.687     -76.317
  C       53.614     -47.817     -74.425
  O       54.438     -48.846     -73.899
  C       54.006     -46.401     -73.991
  N       53.630     -46.104     -72.610
  C       54.635     -45.662     -71.755
  O       55.807     -45.508     -72.093
  N       54.260     -45.452     -70.455
  C       53.036     -45.722     -69.917
  O       52.799     -45.623     -68.719
  C       52.014     -46.188     -70.867
  C       52.352     -46.354     -72.149
  O       50.113     -45.896     -73.727
  O       48.880     -45.495     -75.938
  H       54.296     -48.872     -72.936
  H       49.576     -45.121     -73.478
  H       54.973     -45.120     -69.824
  H       51.025     -46.392     -70.478
  H       51.624     -46.717     -72.867
  H       55.087     -46.255     -74.112
  H       52.576     -48.045     -74.155
  H       53.169     -48.447     -76.472
  H       53.792     -45.743     -76.931
  H       51.349     -45.184     -76.481
  H       51.616     -46.482     -77.650
  P       55.741     -49.086     -76.785
  C       55.405     -50.537     -78.932
  O       54.870     -49.595     -78.028
  O       55.287     -50.039     -75.579
  O       57.221     -49.036     -76.983
  H       54.366     -49.888     -75.311
  H       56.065     -51.248     -78.430
  H       55.964     -50.014     -79.711
  H       54.583     -51.087     -79.397
  H       48.647     -49.630     -73.848
  H       49.894     -48.584     -73.212
  H       50.069     -49.283     -74.804

 3  4  5  6  7  8  9  10  11  12  13  23  28  29  30  31  32 0
 6-311+G(2d,p)
 ****
 33  34 0
 6-311+G(2d,p)
 ****
 1  2  14  15  16  17  18  19  20  21  22  24  25  26 0
 3-21G
 ****
 27  35  36  37  38  39  40  41  42  43  44  45 0
 3-21G
 ****


