%nproc=1
%NoSave
%Mem=1900MB
#P OB98/GEN NMR

erre ene a

0 1
  C      -22.053      17.204     -12.778
  O      -21.971      17.243     -11.368
  H      -21.956      18.221     -13.165
  H      -23.019      16.799     -13.091
  H      -21.246      16.590     -13.186
  P      -22.198      15.849     -10.603
  C      -20.820      13.633     -10.628
  O      -21.086      14.883     -11.245
  C      -20.858      12.525     -11.674
  O      -22.200      12.344     -12.175
  C      -19.998      12.799     -12.903
  O      -18.620      12.551     -12.680
  C      -20.599      11.808     -13.882
  O      -20.139      10.481     -13.570
  C      -22.106      11.960     -13.574
  N      -22.770      12.950     -14.423
  C      -22.996      12.583     -15.755
  O      -22.636      11.484     -16.172
  N      -23.597      13.489     -16.598
  C      -23.951      14.652     -16.149
  N      -24.529      15.513     -17.029
  C      -23.748      15.072     -14.750
  C      -23.159      14.184     -13.954
  O      -23.555      15.286     -11.238
  O      -22.195      15.911      -9.113
  H      -20.553       9.879     -14.215
  H      -23.717      14.366     -10.920
  H      -24.050      16.057     -14.426
  H      -22.974      14.425     -12.913
  H      -22.627      11.001     -13.684
  H      -20.324      12.009     -14.919
  H      -20.156      13.812     -13.288
  H      -20.563      11.587     -11.183
  H      -24.599      15.221     -17.995
  H      -21.582      13.457      -9.862
  H      -24.670      16.494     -16.820
  H      -19.834      13.651     -10.154
  P      -17.570      13.219     -13.695
  C      -16.818      15.669     -14.113
  O      -17.860      14.797     -13.698
  O      -18.101      12.745     -15.126
  O      -16.141      12.832     -13.470
  H      -17.360      12.533     -15.725
  H      -17.159      16.682     -14.062
  H      -16.539      15.437     -15.120
  H      -15.972      15.545     -13.470

 6  7  8  9  10  11  12  13  14  15  16  26  30  31  32  33  35 0
 6-311+G(2d,p)
 ****
 37  38 0
 6-311+G(2d,p)
 ****
 1  2  3  4  5  17  18  19  20  21  22  23  24  25 0
 3-21G
 ****
 27  28  29  34  36  39  40  41  42  43  44  45  46 0
 3-21G
 ****


