%nproc=1
%NoSave
%Mem=1900MB
#P OB98/GEN NMR

erre ene a

0 1
  C     -434.695    -578.055      92.996
  O     -434.744    -576.628      92.947
  P     -435.361    -575.859      94.201
  C     -436.452    -573.905      92.875
  O     -435.458    -574.287      93.840
  C     -436.049    -572.625      92.137
  O     -436.142    -571.498      93.070
  C     -434.598    -572.607      91.626
  O     -434.351    -573.114      90.318
  C     -434.317    -571.105      91.574
  O     -434.839    -570.554      90.333
  C     -435.105    -570.548      92.753
  N     -431.502    -567.518      94.796
  C     -432.140    -567.494      93.592
  N     -433.086    -568.336      93.133
  C     -433.375    -569.280      94.047
  C     -432.825    -569.433      95.309
  C     -431.834    -568.499      95.682
  N     -431.184    -568.525      96.903
  N     -433.367    -570.507      95.961
  C     -434.225    -571.025      95.095
  N     -434.274    -570.302      93.923
  O     -434.769    -576.155      95.531
  O     -436.914    -576.298      94.154
  H     -434.615    -569.601      90.351
  H     -437.231    -576.405      95.069
  H     -431.841    -566.695      92.918
  H     -434.823    -571.901      95.276
  H     -435.601    -569.595      92.514
  H     -433.242    -570.877      91.589
  H     -433.920    -573.077      92.345
  H     -436.738    -572.443      91.317
  H     -437.413    -573.747      93.394
  H     -430.468    -567.845      97.064
  H     -431.389    -569.271      97.545
  H     -436.600    -574.753      92.199
  P     -433.005    -573.935      89.986
  C     -432.241    -573.258      87.558
  O     -433.006    -574.107      88.381
  O     -432.825    -575.198      90.748
  O     -431.862    -572.833      90.218
  H     -431.862    -572.112      89.568
  H     -432.210    -573.674      86.552
  H     -431.221    -573.177      87.946
  H     -432.703    -572.273      87.519
  H     -434.260    -578.428      92.093
  H     -435.687    -578.443      93.100
  H     -434.102    -578.363      93.832

 3  4  5  6  7  8  9  10  11  12  22  25  29  30  31  32 0
 6-311+G(2d,p)
 ****
 33  36  37 0
 6-311+G(2d,p)
 ****
 1  2  13  14  15  16  17  18  19  20  21  23  24  26 0
 3-21G
 ****
 27  28  34  35  38  39  40  41  42  43  44  45  46  47  48 0
 3-21G
 ****


