%nproc=1
%NoSave
%Mem=1900MB
#P OB98/GEN NMR

erre ene a

0 1
  C       10.467    -103.977     -31.656
  O       10.385    -102.918     -30.726
  H       11.358    -104.568     -31.433
  H       10.552    -103.587     -32.673
  H        9.589    -104.623     -31.576
  P        9.195    -101.855     -30.870
  C       10.619     -99.723     -30.579
  O        9.619    -100.565     -30.016
  C       11.518     -99.156     -29.473
  O       10.784     -98.102     -28.804
  C       11.903    -100.215     -28.430
  O       13.309    -100.295     -28.214
  C       11.014     -99.869     -27.241
  O       11.527    -100.277     -25.991
  C       10.805     -98.360     -27.388
  N        9.582     -97.868     -26.757
  C        9.644     -97.553     -25.403
  O       10.648     -97.642     -24.702
  N        8.474     -97.103     -24.846
  C        7.281     -96.958     -25.488
  O        6.267     -96.548     -24.936
  C        7.271     -97.335     -26.910
  C        8.403     -97.766     -27.469
  O        7.828    -102.376     -30.577
  O        9.315    -101.340     -32.381
  H       10.897     -99.966     -25.306
  H        8.603    -101.738     -32.918
  H        8.510     -96.856     -23.870
  H        6.337     -97.244     -27.446
  H        8.433     -98.051     -28.517
  H       11.643     -97.812     -26.955
  H       10.050    -100.376     -27.373
  H       11.647    -101.220     -28.783
  H       12.401     -98.702     -29.935
  H       10.114     -98.910     -31.111
  H       11.223    -100.295     -31.291
  P       14.294    -101.308     -28.951
  C       15.584    -102.304     -26.887
  O       15.604    -101.492     -28.053
  O       14.506    -101.068     -30.408
  O       13.557    -102.735     -28.799
  H       13.789    -103.249     -29.599
  H       16.552    -102.297     -26.431
  H       15.323    -103.307     -27.155
  H       14.862    -101.920     -26.197

 6  7  8  9  10  11  12  13  14  15  16  26  31  32  33  34  35 0
 6-311+G(2d,p)
 ****
 36  37 0
 6-311+G(2d,p)
 ****
 1  2  3  4  5  17  18  19  20  21  22  23  24  25 0
 3-21G
 ****
 27  28  29  30  38  39  40  41  42  43  44  45 0
 3-21G
 ****


