%nproc=1
%NoSave
%Mem=1900MB
#P OB98/GEN NMR

erre ene a

0 1
  C        2.001      -1.951     113.237
  O        1.825      -3.314     112.909
  H        1.255      -1.361     112.699
  H        2.997      -1.615     112.939
  H        1.862      -1.802     114.311
  P        2.863      -4.354     113.552
  C        4.275      -4.347     111.372
  O        4.253      -4.152     112.779
  C        4.646      -5.792     111.061
  O        4.527      -6.036     109.641
  C        6.081      -6.156     111.417
  O        6.248      -6.393     112.802
  C        6.277      -7.406     110.576
  O        5.768      -8.573     111.242
  C        5.455      -7.089     109.309
  N        6.305      -6.732     108.178
  C        6.808      -7.800     107.441
  O        6.567      -8.977     107.709
  N        7.635      -7.473     106.402
  C        8.029      -6.212     106.060
  O        8.831      -5.992     105.162
  C        7.454      -5.122     106.865
  C        6.638      -5.427     107.877
  O        2.333      -5.768     113.023
  O        2.961      -4.310     115.040
  H        1.851      -6.230     113.733
  H        6.406      -8.782     111.952
  H        8.019      -8.233     105.864
  H        7.741      -4.108     106.616
  H        6.218      -4.641     108.497
  H        4.853      -7.958     109.017
  H        7.332      -7.593     110.375
  H        6.768      -5.379     111.060
  H        3.939      -6.452     111.583
  H        5.019      -3.682     110.923
  H        3.290      -4.100     110.963
  P        7.541      -5.787     113.533
  C        9.155      -7.858     113.596
  O        8.800      -6.625     112.999
  O        7.326      -6.311     115.027
  O        7.669      -4.308     113.396
  H        6.924      -7.196     115.066
  H       10.015      -8.259     113.102
  H        8.340      -8.545     113.506
  H        9.378      -7.702     114.631

 6  7  8  9  10  11  12  13  14  15  16  27  31  32  33  34  35 0
 6-311+G(2d,p)
 ****
 36  37 0
 6-311+G(2d,p)
 ****
 1  2  3  4  5  17  18  19  20  21  22  23  24  25 0
 3-21G
 ****
 26  28  29  30  38  39  40  41  42  43  44  45 0
 3-21G
 ****


