%nproc=1
%NoSave
%Mem=1900MB
#P OB98/GEN NMR

erre ene a

0 1
  C     -492.448     145.213    -276.604
  O     -492.244     143.914    -276.040
  P     -491.892     143.680    -274.493
  C     -492.179     141.128    -274.238
  O     -491.268     142.215    -274.307
  C     -491.543     139.816    -274.706
  O     -491.212     139.884    -276.109
  C     -490.239     139.452    -273.998
  O     -490.482     138.954    -272.697
  C     -489.654     138.437    -274.974
  O     -490.220     137.134    -274.769
  C     -490.082     139.011    -276.336
  N     -489.004     139.716    -277.015
  C     -487.853     138.968    -277.299
  O     -487.759     137.800    -276.913
  N     -486.818     139.578    -277.968
  C     -486.900     140.837    -278.271
  N     -485.853     141.379    -278.946
  C     -488.063     141.678    -277.924
  C     -489.064     141.057    -277.305
  O     -493.021     143.979    -273.562
  O     -490.650     144.654    -274.202
  H     -491.171     137.268    -274.596
  H     -490.688     144.945    -273.271
  H     -488.076     142.729    -278.168
  H     -489.955     141.601    -277.017
  H     -490.449     138.210    -276.993
  H     -488.569     138.337    -274.872
  H     -489.584     140.335    -273.960
  H     -492.281     139.016    -274.570
  H     -485.075     140.776    -279.177
  H     -493.041     141.358    -274.883
  H     -485.813     142.352    -279.236
  H     -492.539     141.030    -273.206
  P     -489.755     139.636    -271.440
  C     -491.922     139.215    -270.120
  O     -490.508     139.122    -270.121
  O     -489.559     141.113    -271.522
  O     -488.350     138.875    -271.358
  H     -487.676     139.492    -271.005
  H     -492.322     138.502    -269.388
  H     -492.331     138.993    -271.110
  H     -492.222     140.224    -269.829
  H     -492.669     145.118    -277.647
  H     -491.562     145.799    -276.479
  H     -493.266     145.693    -276.108

 3  4  5  6  7  8  9  10  11  12  13  23  27  28  29  30  32 0
 6-311+G(2d,p)
 ****
 34  35 0
 6-311+G(2d,p)
 ****
 1  2  14  15  16  17  18  19  20  21  22  24  25  26 0
 3-21G
 ****
 31  33  36  37  38  39  40  41  42  43  44  45  46 0
 3-21G
 ****


