%nproc=1
%NoSave
%Mem=1900MB
#P OB98/GEN NMR

erre ene a

0 1
  C     1000.790     194.219    -497.292
  O      999.840     193.160    -497.056
  P      999.452     192.664    -495.587
  C     1001.456     191.036    -495.559
  O     1000.755     192.057    -494.857
  C     1002.711     190.588    -494.807
  O     1002.456     190.484    -493.398
  C     1003.272     189.235    -495.212
  O     1003.954     189.322    -496.462
  C     1004.154     188.916    -494.020
  O     1005.443     189.557    -494.136
  C     1003.353     189.497    -492.852
  N     1002.622     188.479    -492.107
  C     1003.324     187.821    -491.092
  O     1004.519     188.079    -490.898
  N     1002.670     186.878    -490.326
  C     1001.434     186.573    -490.628
  N     1000.847     185.644    -489.831
  C     1000.691     187.180    -491.738
  C     1001.338     188.114    -492.428
  O      998.261     191.760    -495.556
  O      999.159     193.997    -494.748
  H     1005.841     189.510    -493.235
  H      998.480     193.809    -494.078
  H      999.685     186.859    -491.956
  H     1000.850     188.613    -493.267
  H     1004.013     190.039    -492.156
  H     1004.352     187.837    -493.932
  H     1002.452     188.509    -495.281
  H     1003.478     191.388    -494.953
  H     1001.390     185.249    -489.069
  H     1001.746     191.421    -496.542
  H      999.891     185.326    -489.954
  H     1000.783     190.179    -495.708
  P     1003.245     188.751    -497.795
  C     1003.681     186.268    -497.354
  O     1002.714     187.296    -497.468
  O     1004.056     188.881    -499.039
  O     1001.898     189.627    -497.902
  H     1001.676     189.732    -498.838
  H     1003.258     185.459    -496.745
  H     1004.583     186.644    -496.857
  H     1003.921     185.902    -498.343
  H     1000.891     194.379    -498.345
  H     1001.739     193.945    -496.880
  H     1000.445     195.118    -496.826

 3  4  5  6  7  8  9  10  11  12  13  23  27  28  29  30  32 0
 6-311+G(2d,p)
 ****
 34  35 0
 6-311+G(2d,p)
 ****
 1  2  14  15  16  17  18  19  20  21  22  24  25  26 0
 3-21G
 ****
 31  33  36  37  38  39  40  41  42  43  44  45  46 0
 3-21G
 ****


