%nproc=1
%NoSave
%Mem=1900MB
#P OB98/GEN NMR

erre ene a

0 1
  C     -275.904     -10.047     -58.394
  O     -276.389     -11.284     -57.926
  P     -276.909     -12.452     -58.875
  C     -279.411     -12.296     -58.120
  O     -278.467     -12.203     -59.183
  C     -280.655     -13.082     -58.556
  O     -281.374     -12.297     -59.549
  C     -280.273     -14.413     -59.226
  O     -281.093     -15.512     -58.850
  C     -280.232     -14.047     -60.709
  O     -280.347     -15.171     -61.575
  C     -281.353     -13.013     -60.800
  N     -280.981     -12.322     -65.824
  C     -281.350     -13.460     -65.127
  N     -281.466     -14.587     -65.852
  N     -281.559     -13.474     -63.835
  C     -281.301     -12.295     -63.230
  C     -280.928     -11.104     -63.813
  C     -280.733     -11.089     -65.242
  O     -280.289     -10.140     -65.888
  N     -280.685     -10.131     -62.874
  C     -280.877     -10.740     -61.724
  N     -281.221     -12.059     -61.883
  O     -276.475     -13.839     -58.540
  O     -276.226     -12.055     -60.289
  H     -280.453     -14.831     -62.479
  H     -276.019     -12.891     -60.750
  H     -280.757     -12.391     -66.811
  H     -280.754     -10.281     -60.747
  H     -282.325     -13.491     -60.934
  H     -279.261     -13.594     -60.908
  H     -281.171     -14.637     -66.819
  H     -279.271     -14.729     -58.915
  H     -281.489     -15.466     -65.339
  H     -281.316     -13.219     -57.695
  H     -279.687     -11.265     -57.865
  H     -278.955     -12.750     -57.236
  P     -280.671     -17.021     -58.543
  C     -281.989     -18.039     -60.504
  O     -280.712     -17.852     -59.915
  O     -281.899     -17.633     -57.726
  O     -279.406     -17.172     -57.769
  H     -281.556     -18.219     -57.014
  H     -281.921     -18.823     -61.253
  H     -282.304     -17.109     -60.987
  H     -282.727     -18.325     -59.749
  H     -275.618      -9.438     -57.562
  H     -276.671      -9.551     -58.952
  H     -275.055     -10.212     -59.024

 3  4  5  6  7  8  9  10  11  12  23  26  30  31 0
 6-311+G(2d,p)
 ****
 33  35  36  37  38 0
 6-311+G(2d,p)
 ****
 1  2  13  14  15  16  17  18  19  20  21  22  24  25 0
 3-21G
 ****
 27  28  29  32  34  39  40  41  42  43  44  45  46  47  48  49 0
 3-21G
 ****


