%nproc=1
%NoSave
%Mem=1900MB
#P OB98/GEN NMR

erre ene a

0 1
  C      -91.780    -155.761    -280.731
  O      -90.481    -156.298    -280.848
  H      -91.695    -154.715    -280.418
  H      -92.355    -156.300    -279.977
  H      -92.296    -155.797    -281.694
  P      -90.310    -157.875    -281.110
  C      -90.007    -159.926    -279.600
  O      -90.326    -158.541    -279.640
  C      -90.607    -160.602    -278.367
  O      -89.975    -160.083    -277.167
  C      -92.119    -160.393    -278.219
  O      -92.746    -161.643    -277.916
  C      -92.239    -159.441    -277.038
  O      -93.505    -159.539    -276.393
  C      -91.020    -159.855    -276.204
  N      -90.638    -158.851    -275.218
  C      -91.339    -158.865    -274.007
  O      -92.251    -159.672    -273.829
  N      -91.017    -157.944    -273.043
  C      -90.112    -157.047    -273.284
  N      -89.848    -156.154    -272.293
  C      -89.380    -156.964    -274.568
  C      -89.684    -157.891    -275.476
  O      -89.136    -158.244    -281.952
  O      -91.712    -158.333    -281.728
  H      -93.628    -158.743    -275.828
  H      -91.595    -159.192    -282.205
  H      -88.641    -156.193    -274.726
  H      -89.191    -157.914    -276.440
  H      -91.213    -160.801    -275.678
  H      -92.115    -158.408    -277.388
  H      -92.586    -159.982    -279.111
  H      -90.355    -161.669    -278.404
  H      -90.371    -156.246    -271.430
  H      -88.916    -160.033    -279.602
  H      -89.168    -155.412    -272.372
  H      -90.416    -160.399    -280.500
  P      -94.169    -161.908    -278.612
  C      -96.471    -160.716    -278.681
  O      -95.204    -160.815    -278.044
  O      -94.654    -163.276    -277.939
  O      -94.100    -162.011    -280.100
  H      -94.491    -164.023    -278.546
  H      -97.052    -159.955    -278.203
  H      -96.982    -161.653    -278.607
  H      -96.333    -160.465    -279.712

 6  7  8  9  10  11  12  13  14  15  16  26  30  31  32  33  35 0
 6-311+G(2d,p)
 ****
 37  38 0
 6-311+G(2d,p)
 ****
 1  2  3  4  5  17  18  19  20  21  22  23  24  25 0
 3-21G
 ****
 27  28  29  34  36  39  40  41  42  43  44  45  46 0
 3-21G
 ****


