%nproc=1
%NoSave
%Mem=1900MB
#P OB98/GEN NMR

erre ene a

0 1
  C      -78.839      55.758     -56.745
  O      -79.590      56.057     -57.901
  H      -77.979      55.150     -57.036
  H      -79.455      55.186     -56.045
  H      -78.478      56.667     -56.257
  P      -80.630      57.272     -57.851
  C      -82.610      55.648     -57.528
  O      -81.916      56.782     -57.022
  C      -83.786      55.253     -56.633
  O      -83.322      54.982     -55.292
  C      -84.821      56.371     -56.505
  O      -85.776      56.435     -57.548
  C      -85.485      56.030     -55.174
  O      -86.538      55.069     -55.359
  C      -84.336      55.418     -54.369
  N      -83.531      56.565     -49.456
  C      -84.248      55.516     -49.998
  N      -84.878      54.706     -49.118
  N      -84.350      55.300     -51.282
  C      -83.748      56.247     -52.042
  C      -83.021      57.337     -51.619
  C      -82.869      57.536     -50.192
  O      -82.250      58.453     -49.661
  N      -82.557      58.075     -52.681
  C      -83.065      57.474     -53.739
  N      -83.774      56.344     -53.403
  O      -81.195      57.347     -59.350
  O      -80.057      58.589     -57.425
  H      -87.263      55.499     -55.848
  H      -81.495      58.252     -59.548
  H      -83.464      56.667     -48.458
  H      -82.929      57.798     -54.765
  H      -84.664      54.531     -53.812
  H      -85.939      56.911     -54.711
  H      -84.924      54.900     -48.130
  H      -84.323      57.341     -56.402
  H      -85.618      54.098     -49.474
  H      -84.234      54.327     -57.014
  H      -81.886      54.832     -57.576
  H      -82.954      55.838     -58.548
  P      -86.138      57.842     -58.219
  C      -87.805      58.277     -56.269
  O      -86.748      58.770     -57.063
  O      -87.403      57.485     -59.131
  O      -85.038      58.461     -59.013
  H      -87.121      57.323     -60.051
  H      -88.089      59.019     -55.552
  H      -87.485      57.392     -55.759
  H      -88.642      58.046     -56.894

 6  7  8  9  10  11  12  13  14  15  26  29  33  34 0
 6-311+G(2d,p)
 ****
 36  38  39  40  41 0
 6-311+G(2d,p)
 ****
 1  2  3  4  5  16  17  18  19  20  21  22  23  24  25 0
 3-21G
 ****
 27  28  30  31  32  35  37  42  43  44  45  46  47 0
 3-21G
 ****
 48  49 0
 3-21G
 ****


