%nproc=1
%NoSave
%Mem=1900MB
#P OB98/GEN NMR

erre ene a

0 1
  C     -296.807     418.914     195.342
  O     -296.412     420.267     195.467
  H     -295.911     418.298     195.227
  H     -297.438     418.779     194.461
  H     -297.344     418.589     196.238
  P     -297.556     421.376     195.642
  C     -296.022     423.167     194.588
  O     -297.267     422.485     194.521
  C     -295.841     424.048     193.358
  O     -295.657     423.238     192.182
  C     -297.031     424.965     193.072
  O     -296.975     426.119     193.896
  C     -296.793     425.268     191.600
  O     -295.738     426.241     191.469
  C     -296.329     423.898     191.076
  N     -299.541     422.942     187.273
  C     -298.621     423.965     187.422
  N     -298.587     424.886     186.435
  N     -297.831     424.083     188.454
  C     -298.026     423.127     189.391
  C     -298.914     422.075     189.363
  C     -299.750     421.924     188.191
  O     -300.563     421.023     188.009
  N     -298.873     421.351     190.527
  C     -297.934     421.941     191.241
  N     -297.398     423.033     190.602
  O     -297.724     421.942     197.021
  O     -298.883     420.655     195.120
  H     -295.971     426.983     192.057
  H     -299.363     420.227     195.851
  H     -300.136     422.917     186.460
  H     -297.604     421.619     192.220
  H     -295.605     423.994     190.259
  H     -297.673     425.671     191.099
  H     -299.352     424.998     185.782
  H     -297.983     424.436     193.170
  H     -297.958     425.671     186.550
  H     -294.922     424.631     193.495
  H     -295.234     422.409     194.639
  H     -295.976     423.784     195.492
  P     -298.284     427.010     194.162
  C     -296.792     429.105     194.388
  O     -297.878     428.491     193.707
  O     -298.844     426.908     195.543
  O     -299.310     426.567     193.017
  H     -299.875     425.798     193.270
  H     -296.628     430.084     193.988
  H     -295.909     428.514     194.258
  H     -297.021     429.179     195.431

 6  7  8  9  10  11  12  13  14  15  26  29  33  34 0
 6-311+G(2d,p)
 ****
 36  38  39  40  41 0
 6-311+G(2d,p)
 ****
 1  2  3  4  5  16  17  18  19  20  21  22  23  24  25 0
 3-21G
 ****
 27  28  30  31  32  35  37  42  43  44  45  46  47 0
 3-21G
 ****
 48  49 0
 3-21G
 ****


