%nproc=1
%NoSave
%Mem=1900MB
#P OB98/GEN NMR

erre ene a

0 1
  C      -36.267    -114.114     -39.309
  O      -37.073    -115.242     -39.601
  P      -36.697    -116.675     -38.992
  C      -35.561    -117.379     -41.225
  O      -35.445    -117.225     -39.828
  C      -34.786    -118.612     -41.713
  O      -33.372    -118.342     -41.544
  C      -35.062    -119.893     -40.935
  O      -34.628    -121.006     -41.721
  C      -34.152    -119.732     -39.737
  O      -33.882    -120.973     -39.092
  C      -32.918    -119.019     -40.347
  N      -32.328    -118.053     -39.402
  C      -31.433    -118.556     -38.461
  O      -31.073    -119.730     -38.444
  N      -31.035    -117.680     -37.488
  C      -31.477    -116.397     -37.352
  O      -31.359    -115.739     -36.324
  C      -32.224    -115.858     -38.498
  C      -32.631    -116.702     -39.447
  O      -37.913    -117.596     -39.476
  O      -36.532    -116.704     -37.512
  H      -33.272    -120.779     -38.342
  H      -38.580    -117.670     -38.769
  H      -30.502    -118.084     -36.727
  H      -32.466    -114.802     -38.499
  H      -33.230    -116.344     -40.282
  H      -32.136    -119.738     -40.626
  H      -34.637    -119.077     -39.003
  H      -36.108    -120.022     -40.639
  H      -34.976    -118.760     -42.783
  H      -35.197    -116.474     -41.721
  H      -36.615    -117.486     -41.510
  P      -35.649    -122.230     -41.916
  C      -34.859    -123.240     -39.690
  O      -35.965    -122.792     -40.448
  O      -35.253    -123.255     -42.926
  O      -37.018    -121.496     -42.318
  H      -37.619    -122.133     -42.745
  H      -35.078    -123.100     -38.628
  H      -33.950    -122.686     -39.942
  H      -34.700    -124.307     -39.882
  H      -36.669    -113.252     -39.799
  H      -35.270    -114.289     -39.656
  H      -36.253    -113.950     -38.252

 3  4  5  6  7  8  9  10  11  12  13  23  28  29  30  31  32 0
 6-311+G(2d,p)
 ****
 33  34 0
 6-311+G(2d,p)
 ****
 1  2  14  15  16  17  18  19  20  21  22  24  25  26  27 0
 3-21G
 ****
 35  36  37  38  39  40  41  42  43  44  45 0
 3-21G
 ****


