%nproc=1
%NoSave
%Mem=1900MB
#P OB98/GEN NMR

erre ene a

0 1
  C      206.042     -18.732     144.849
  O      207.144     -18.819     143.965
  H      205.917     -19.697     145.348
  H      205.128     -18.500     144.294
  H      206.229     -17.964     145.605
  P      207.478     -17.510     143.099
  C      206.116     -16.100     141.408
  O      206.163     -17.271     142.211
  C      205.046     -16.233     140.327
  O      205.568     -16.959     139.199
  C      203.792     -16.976     140.772
  O      202.910     -16.097     141.452
  C      203.221     -17.409     139.430
  O      202.504     -16.310     138.834
  C      204.483     -17.719     138.606
  N      203.229     -22.398     136.902
  C      202.535     -21.238     136.928
  N      202.908     -20.046     137.446
  C      204.144     -20.122     137.968
  C      204.968     -21.236     138.018
  C      204.467     -22.419     137.446
  N      205.175     -23.601     137.422
  N      206.164     -20.939     138.636
  C      206.087     -19.651     138.902
  N      204.871     -19.117     138.552
  O      208.776     -17.533     142.365
  O      207.351     -16.367     144.216
  H      201.943     -15.925     139.533
  H      206.591     -16.542     144.799
  H      201.548     -21.270     136.475
  H      206.887     -19.054     139.328
  H      204.381     -17.384     137.566
  H      202.515     -18.238     139.521
  H      204.035     -17.867     141.363
  H      204.796     -15.223     139.976
  H      207.093     -15.919     140.942
  H      204.669     -24.437     137.169
  H      206.041     -23.643     137.942
  H      205.887     -15.254     142.067
  P      201.987     -16.620     142.659
  C      199.961     -18.197     142.758
  O      200.730     -17.317     141.949
  O      201.668     -15.589     143.683
  O      202.794     -17.862     143.261
  H      202.455     -18.084     144.150
  H      199.155     -18.599     142.181
  H      199.567     -17.659     143.595
  H      200.582     -18.995     143.108

 6  7  8  9  10  11  12  13  14  15  25  28  32  33  34  35 0
 6-311+G(2d,p)
 ****
 36  39  40 0
 6-311+G(2d,p)
 ****
 1  2  3  4  5  16  17  18  19  20  21  22  23  24 0
 3-21G
 ****
 26  27  29  30  31  37  38  41  42  43  44  45  46  47 0
 3-21G
 ****
 48 0
 3-21G
 ****


