%nproc=1
%NoSave
%Mem=1900MB
#P OB98/GEN NMR

erre ene a

0 1
  C      -33.892    -318.048     573.030
  O      -33.626    -319.048     573.995
  H      -34.236    -317.147     573.552
  H      -34.672    -318.378     572.340
  H      -32.981    -317.806     572.478
  P      -33.140    -320.468     573.426
  C      -30.620    -319.875     573.342
  O      -31.644    -320.629     573.984
  C      -29.276    -320.101     574.025
  O      -29.186    -319.316     575.218
  C      -29.022    -321.550     574.425
  O      -28.530    -322.299     573.344
  C      -27.952    -321.357     575.510
  O      -26.669    -321.188     574.872
  C      -28.384    -320.044     576.188
  N      -28.769    -318.673     581.120
  C      -27.805    -318.482     580.213
  N      -27.733    -318.925     578.932
  C      -28.839    -319.621     578.618
  C      -29.921    -319.904     579.437
  C      -29.869    -319.382     580.751
  N      -30.882    -319.592     581.669
  N      -30.868    -320.643     578.768
  C      -30.393    -320.758     577.546
  N      -29.153    -320.190     577.410
  O      -33.332    -320.689     571.969
  O      -33.965    -321.471     574.373
  H      -26.085    -320.755     575.531
  H      -33.975    -321.137     575.289
  H      -26.948    -317.899     580.561
  H      -30.923    -321.232     576.718
  H      -27.519    -319.416     576.432
  H      -27.869    -322.218     576.176
  H      -29.913    -321.999     574.895
  H      -28.488    -319.756     573.340
  H      -30.870    -318.806     573.362
  H      -30.670    -319.350     582.621
  H      -31.619    -320.221     581.427
  H      -30.580    -320.193     572.291
  P      -29.140    -323.747     572.982
  C      -30.578    -322.566     571.197
  O      -29.648    -323.604     571.461
  O      -30.149    -324.251     573.957
  O      -27.867    -324.688     572.854
  H      -28.135    -325.628     572.893
  H      -30.837    -322.574     570.159
  H      -30.140    -321.622     571.448
  H      -31.459    -322.718     571.785

 6  7  8  9  10  11  12  13  14  15  25  28  32  33  34  35 0
 6-311+G(2d,p)
 ****
 36  39  40 0
 6-311+G(2d,p)
 ****
 1  2  3  4  5  16  17  18  19  20  21  22  23  24 0
 3-21G
 ****
 26  27  29  30  31  37  38  41  42  43  44  45  46  47 0
 3-21G
 ****
 48 0
 3-21G
 ****


