%nproc=1
%NoSave
%Mem=1900MB
#P OB98/GEN NMR

erre ene a

0 1
  C       45.609    -274.878    -204.698
  O       45.988    -273.528    -204.511
  H       46.417    -275.399    -205.217
  H       44.703    -274.932    -205.306
  H       45.439    -275.361    -203.732
  P       44.934    -272.592    -203.747
  C       45.991    -272.644    -201.365
  O       44.941    -273.074    -202.217
  C       45.710    -273.064    -199.917
  O       44.562    -272.310    -199.426
  C       45.363    -274.553    -199.758
  O       45.779    -274.965    -198.445
  C       43.846    -274.527    -199.828
  O       43.297    -275.745    -199.381
  C       43.578    -273.276    -198.994
  N       38.700    -273.652    -197.511
  C       39.816    -274.293    -197.102
  N       41.082    -274.131    -197.535
  C       41.143    -273.176    -198.479
  C       40.095    -272.431    -198.990
  C       38.818    -272.702    -198.469
  N       37.679    -272.057    -198.889
  N       40.548    -271.546    -199.952
  C       41.848    -271.756    -200.017
  N       42.250    -272.735    -199.152
  O       43.521    -273.100    -204.300
  O       45.116    -271.124    -203.943
  H       43.506    -275.895    -198.435
  H       43.233    -272.537    -205.043
  H       39.672    -275.039    -196.324
  H       42.536    -271.237    -200.673
  H       43.738    -273.459    -197.925
  H       43.505    -274.388    -200.859
  H       45.838    -275.192    -200.507
  H       46.564    -272.782    -199.291
  H       46.063    -271.552    -201.426
  H       46.935    -273.086    -201.696
  H       36.799    -272.322    -198.475
  H       37.749    -271.359    -199.615
  P       47.093    -275.876    -198.289
  C       48.296    -274.361    -196.529
  O       48.313    -274.946    -197.823
  O       47.472    -276.177    -199.818
  O       46.913    -277.150    -197.529
  H       47.942    -277.030    -199.876
  H       49.182    -273.777    -196.390
  H       48.258    -275.133    -195.789
  H       47.436    -273.732    -196.433

 6  7  8  9  10  11  12  13  14  15  25  28  32  33  34  35 0
 6-311+G(2d,p)
 ****
 36  37  40 0
 6-311+G(2d,p)
 ****
 1  2  3  4  5  16  17  18  19  20  21  22  23  24 0
 3-21G
 ****
 26  27  29  30  31  38  39 41  42  43  44  45  46  47  48 0
 3-21G
 ****


