%nproc=1
%NoSave
%Mem=1900MB
#P OB98/GEN NMR

erre ene a

0 1
  C     -804.577    -358.922     318.270
  O     -804.416    -358.244     319.502
  H     -805.644    -358.958     318.032
  H     -804.201    -359.947     318.350
  H     -804.051    -358.394     317.474
  P     -802.906    -358.063     320.030
  C     -803.116    -355.478     320.198
  O     -802.881    -356.708     320.875
  C     -803.793    -354.493     321.149
  O     -805.192    -354.827     321.297
  C     -803.223    -354.497     322.560
  O     -802.010    -353.779     322.660
  C     -804.367    -353.863     323.338
  O     -804.326    -352.436     323.263
  C     -805.607    -354.397     322.607
  N     -807.140    -356.018     327.200
  C     -806.615    -354.837     326.785
  N     -806.250    -354.477     325.543
  C     -806.494    -355.470     324.674
  C     -807.016    -356.727     324.941
  C     -807.350    -356.991     326.282
  N     -807.859    -358.196     326.720
  N     -807.073    -357.488     323.790
  C     -806.594    -356.718     322.837
  N     -806.238    -355.491     323.318
  O     -802.095    -357.699     318.704
  O     -802.338    -359.263     320.721
  H     -803.402    -352.173     323.474
  H     -801.641    -358.491     318.360
  H     -806.490    -354.088     327.557
  H     -806.491    -357.004     321.801
  H     -806.373    -353.616     322.463
  H     -804.330    -354.145     324.392
  H     -803.097    -355.532     322.908
  H     -803.729    -353.482     320.704
  H     -803.760    -355.658     319.335
  H     -802.154    -355.083     319.852
  H     -808.009    -358.333     327.693
  H     -807.908    -358.965     326.055
  P     -801.213    -353.873     324.044
  C     -798.764    -353.567     323.172
  O     -799.871    -353.003     323.878
  O     -800.683    -355.376     324.102
  O     -802.019    -353.512     325.249
  H     -800.701    -355.695     325.025
  H     -797.958    -352.864     323.152
  H     -799.060    -353.798     322.170
  H     -798.445    -354.462     323.665

 6  7  8  9  10  11  12  13  14  15  25  28  32  33  34  35 0
 6-311+G(2d,p)
 ****
 36  37  40 0
 6-311+G(2d,p)
 ****
 1  2  3  4  5  16  17  18  19  20  21  22  23  24 0
 3-21G
 ****
 26  27  29  30  31  38  39 41  42  43  44  45  46  47  48 0
 3-21G
 ****


