%nproc=1
%NoSave
%Mem=1900MB
#P OB98/GEN NMR

erre ene a

0 1
  C      305.389      68.592    -552.088
  O      305.892      69.430    -553.117
  P      306.146      70.994    -552.865
  C      303.616      71.417    -553.085
  O      304.913      71.729    -553.579
  C      302.588      72.401    -553.634
  O      302.706      73.643    -552.903
  C      302.760      72.790    -555.104
  O      302.181      71.882    -556.026
  C      301.990      74.102    -555.144
  O      300.580      73.842    -555.200
  C      302.359      74.731    -553.791
  N      304.431      79.030    -551.942
  C      303.309      78.346    -551.611
  N      302.812      77.221    -552.167
  C      303.630      76.775    -553.132
  C      304.808      77.354    -553.580
  C      305.206      78.537    -552.939
  N      306.362      79.217    -553.259
  N      305.358      76.617    -554.610
  C      304.533      75.600    -554.768
  N      303.481      75.649    -553.894
  O      307.505      71.467    -553.247
  O      305.833      71.195    -551.307
  H      300.363      73.267    -554.437
  H      306.207      72.047    -551.001
  H      302.726      78.770    -550.793
  H      304.660      74.812    -555.498
  H      301.524      75.266    -553.338
  H      302.241      74.716    -556.013
  H      303.816      72.982    -555.348
  H      301.587      71.992    -553.456
  H      303.638      71.494    -551.992
  H      306.636      79.982    -552.660
  H      307.020      78.769    -553.888
  H      303.365      70.390    -553.351
  P      303.184      71.067    -556.990
  C      302.923      72.507    -559.160
  O      302.641      71.306    -558.482
  O      303.398      69.642    -556.603
  O      304.515      71.947    -556.940
  H      304.454      72.825    -557.346
  H      302.614      72.405    -560.203
  H      303.995      72.725    -559.138
  H      302.372      73.340    -558.706
  H      305.292      67.592    -552.457
  H      304.431      68.950    -551.773
  H      306.064      68.602    -551.258

 3  4  5  6  7  8  9  10  11  12  22  25  29  30  31  32 0
 6-311+G(2d,p)
 ****
 33  36  37 0
 6-311+G(2d,p)
 ****
 1  2  13  14  15  16  17  18  19  20  21  23  24  26 0
 3-21G
 ****
 27  28  34  35  38  39  40  41  42  43  44  45  46  47  48 0
 3-21G
 ****


