%nproc=1
%NoSave
%Mem=1900MB
#P OB98/GEN NMR

erre ene a

0 1
  C     -544.535    -254.491     207.366
  O     -545.007    -255.230     206.263
  H     -545.186    -253.624     207.509
  H     -543.520    -254.138     207.165
  H     -544.541    -255.088     208.283
  P     -544.546    -256.755     206.106
  C     -543.753    -256.547     203.655
  O     -543.378    -256.813     205.003
  C     -542.657    -256.957     202.671
  O     -541.447    -256.224     202.960
  C     -542.307    -258.447     202.766
  O     -543.116    -259.293     201.970
  C     -540.859    -258.458     202.286
  O     -540.785    -258.599     200.856
  C     -540.327    -257.089     202.721
  N     -535.599    -256.954     204.664
  C     -535.989    -257.020     203.340
  N     -534.994    -257.094     202.431
  N     -537.241    -257.029     202.959
  C     -538.122    -257.048     203.983
  C     -537.854    -257.007     205.338
  C     -536.469    -256.925     205.748
  O     -536.073    -256.849     206.906
  N     -539.007    -257.086     206.083
  C     -539.954    -257.263     205.187
  N     -539.480    -257.167     203.902
  O     -545.776    -257.440     205.337
  O     -544.254    -257.479     207.387
  H     -539.842    -258.646     200.609
  H     -545.852    -258.373     205.612
  H     -534.624    -256.923     204.897
  H     -541.003    -257.416     205.410
  H     -539.729    -256.625     201.927
  H     -540.316    -259.309     202.715
  H     -534.019    -257.178     202.674
  H     -542.324    -258.782     203.809
  H     -535.237    -257.332     201.466
  H     -542.964    -256.681     201.654
  H     -543.933    -255.472     203.591
  H     -544.691    -257.051     203.415
  P     -543.338    -260.824     202.364
  C     -542.100    -261.456     200.132
  O     -542.334    -261.717     201.498
  O     -544.770    -261.159     201.729
  O     -543.291    -261.128     203.824
  H     -545.467    -261.109     202.407
  H     -541.399    -262.168     199.748
  H     -541.703    -260.469     200.020
  H     -543.020    -261.534     199.591

 6  7  8  9  10  11  12  13  14  15  26  29  33  34 0
 6-311+G(2d,p)
 ****
 36  38  39  40  41 0
 6-311+G(2d,p)
 ****
 1  2  3  4  5  16  17  18  19  20  21  22  23  24  25 0
 3-21G
 ****
 27  28  30  31  32  35  37  42  43  44  45  46  47 0
 3-21G
 ****
 48  49 0
 3-21G
 ****


