%nproc=1
%NoSave
%Mem=1900MB
#P OB98/GEN NMR

erre ene a

0 1
  C      342.880    -428.142    -213.306
  O      343.667    -428.688    -214.349
  H      342.508    -428.966    -212.689
  H      342.026    -427.607    -213.723
  H      343.478    -427.474    -212.681
  P      344.421    -427.689    -215.352
  C      346.902    -427.518    -216.019
  O      345.815    -428.389    -215.742
  C      348.223    -428.167    -215.624
  O      348.300    -428.228    -214.174
  C      348.401    -429.585    -216.170
  O      349.777    -429.763    -216.528
  C      348.072    -430.467    -214.976
  O      348.716    -431.734    -215.040
  C      348.545    -429.602    -213.806
  N      348.370    -432.869    -209.965
  C      349.264    -432.783    -211.012
  N      350.252    -433.704    -211.068
  N      349.205    -431.853    -211.943
  C      348.176    -430.980    -211.752
  C      347.229    -430.976    -210.756
  C      347.303    -432.012    -209.753
  O      346.540    -432.158    -208.805
  N      346.333    -429.944    -210.936
  C      346.742    -429.336    -212.035
  N      347.854    -429.934    -212.572
  O      344.557    -426.273    -214.875
  O      343.572    -427.778    -216.706
  H      348.397    -432.175    -215.859
  H      342.969    -427.014    -216.786
  H      348.473    -433.616    -209.285
  H      346.270    -428.468    -212.480
  H      349.622    -429.719    -213.604
  H      346.987    -430.632    -214.930
  H      350.370    -434.436    -210.379
  H      347.758    -429.793    -217.034
  H      350.932    -433.635    -211.812
  H      349.043    -427.515    -215.948
  H      346.759    -426.593    -215.446
  H      346.908    -427.272    -217.088
  P      350.123    -430.228    -218.028
  C      352.196    -430.322    -219.559
  O      351.708    -430.081    -218.240
  O      349.280    -429.631    -219.096
  O      349.938    -431.815    -217.958
  H      349.653    -432.138    -218.849
  H      353.258    -430.195    -219.575
  H      351.744    -429.630    -220.239
  H      351.952    -431.322    -219.852

 6  7  8  9  10  11  12  13  14  15  26  29  33  34 0
 6-311+G(2d,p)
 ****
 36  38  39  40  41 0
 6-311+G(2d,p)
 ****
 1  2  3  4  5  16  17  18  19  20  21  22  23  24  25 0
 3-21G
 ****
 27  28  30  31  32  35  37  42  43  44  45  46  47 0
 3-21G
 ****
 48  49 0
 3-21G
 ****


