%nproc=1
%NoSave
%Mem=1900MB
#P OB98/GEN NMR

erre ene a

0 1
  C      168.447     374.011    -743.722
  O      167.177     374.566    -743.429
  P      167.122     375.914    -742.559
  C      165.126     375.038    -741.171
  O      165.619     376.064    -742.024
  C      163.638     375.222    -740.900
  O      163.464     376.298    -739.933
  C      162.808     375.593    -742.141
  O      161.573     374.840    -742.125
  C      162.444     377.050    -741.921
  O      161.249     377.422    -742.599
  C      162.346     377.076    -740.391
  N      159.714     380.341    -737.578
  C      159.519     378.990    -737.750
  N      158.436     378.445    -737.151
  N      160.314     378.236    -738.473
  C      161.370     378.906    -738.995
  C      161.676     380.254    -738.876
  C      160.754     381.087    -738.129
  O      160.816     382.301    -738.002
  N      162.837     380.558    -739.530
  C      163.247     379.415    -740.055
  N      162.353     378.393    -739.801
  O      167.264     377.055    -743.662
  O      168.201     376.041    -741.512
  H      161.456     377.438    -743.550
  H      168.017     377.647    -743.451
  H      159.062     380.875    -737.028
  H      164.148     379.286    -740.644
  H      161.422     376.562    -740.066
  H      163.267     377.687    -742.276
  H      157.806     378.964    -736.558
  H      163.319     375.437    -743.098
  H      158.293     377.452    -737.265
  H      163.253     374.307    -740.424
  H      165.665     375.061    -740.224
  H      165.299     374.060    -741.654
  P      160.660     374.974    -743.459
  C      158.792     376.115    -742.032
  O      159.152     375.076    -742.935
  O      160.744     373.505    -744.104
  O      161.114     376.042    -744.399
  H      160.581     373.554    -745.065
  H      159.605     376.847    -741.925
  H      158.575     375.675    -741.057
  H      157.905     376.620    -742.415
  H      168.322     373.122    -744.304
  H      168.951     373.771    -742.809
  H      169.027     374.720    -744.274

 3  4  5  6  7  8  9  10  11  12  23  26  30  31  33  0
 6-311+G(2d,p)
 ****
 35  36  37  38 0
 6-311+G(2d,p)
 ****
 1  2  13  14  15  16  17  18  19  20  21  22  24  25  27  28  29 0
 3-21G
 ****
 32  34  39  40  41  42  43  44  45  46  47  48  49 0
 3-21G
 ****


