%nproc=1
%NoSave
%Mem=1900MB
#P OB98/GEN NMR

erre ene a

0 1
  C       69.134      66.314    -175.946
  O       67.974      66.701    -175.236
  H       69.798      65.775    -175.266
  H       69.653      67.203    -176.313
  H       68.878      65.659    -176.783
  P       66.727      67.211    -176.109
  C       65.227      65.129    -175.722
  O       65.981      65.896    -176.648
  C       63.737      65.252    -176.022
  O       63.462      64.855    -177.383
  C       62.843      64.391    -175.135
  O       62.572      65.025    -173.892
  C       61.590      64.310    -175.992
  O       60.850      65.547    -175.888
  C       62.178      64.171    -177.402
  N       60.623      60.533    -180.576
  C       60.122      61.805    -180.374
  N       59.050      62.154    -181.116
  N       60.622      62.657    -179.517
  C       61.677      62.163    -178.827
  C       62.259      60.920    -178.933
  C       61.707      59.995    -179.895
  O       62.119      58.860    -180.120
  N       63.312      60.779    -178.067
  C       63.353      61.927    -177.421
  N       62.380      62.800    -177.843
  O       67.434      67.812    -177.416
  O       65.860      68.227    -175.446
  H       60.517      65.603    -174.974
  H       67.446      68.785    -177.348
  H       60.193      59.913    -181.241
  H       64.067      62.180    -176.650
  H       61.556      64.660    -178.162
  H       60.916      63.511    -175.679
  H       58.602      61.539    -181.778
  H       63.258      63.385    -174.996
  H       58.670      63.083    -180.987
  H       63.464      66.313    -175.932
  H       65.427      65.495    -174.709
  H       65.537      64.081    -175.793
  P       62.246      64.100    -172.624
  C       64.685      64.211    -171.749
  O       63.621      63.384    -172.200
  O       61.388      62.912    -173.266
  O       61.504      64.772    -171.521
  H       60.464      62.966    -172.958
  H       65.530      63.603    -171.503
  H       64.372      64.754    -170.882
  H       64.954      64.900    -172.523

 6  7  8  9  10  11  12  13  14  15  26  29  33  34 0
 6-311+G(2d,p)
 ****
 36  38  39  40  41 0
 6-311+G(2d,p)
 ****
 1  2  3  4  5  16  17  18  19  20  21  22  23  24  25 0
 3-21G
 ****
 27  28  30  31  32  35  37  42  43  44  45  46  47 0
 3-21G
 ****
 48  49 0
 3-21G
 ****


