%nproc=1
%NoSave
%Mem=1900MB
#P OB98/GEN NMR

erre ene a

0 1
  C      -18.647      98.206    -177.016
  O      -19.188      97.604    -178.182
  P      -18.273      97.576    -179.499
  C      -17.647      95.142    -178.890
  O      -17.173      96.427    -179.266
  C      -17.369      94.120    -179.985
  O      -17.691      92.792    -179.484
  C      -18.182      94.335    -181.274
  O      -17.324      94.147    -182.410
  C      -19.183      93.193    -181.259
  O      -19.626      92.854    -182.567
  C      -18.356      92.109    -180.565
  N      -19.964      87.444    -181.641
  C      -18.992      88.207    -182.257
  N      -18.406      87.666    -183.347
  N      -18.625      89.391    -181.845
  C      -19.273      89.791    -180.723
  C      -20.248      89.124    -180.017
  C      -20.685      87.840    -180.520
  O      -21.604      87.156    -180.073
  N      -20.654      89.845    -178.922
  C      -19.929      90.947    -178.965
  N      -19.112      90.983    -180.068
  O      -17.435      98.934    -179.381
  O      -19.015      97.510    -180.789
  H      -20.215      93.574    -182.864
  H      -17.566      99.474    -180.184
  H      -20.220      86.547    -182.010
  H      -19.987      91.756    -178.247
  H      -17.586      91.720    -181.246
  H      -20.051      93.484    -180.657
  H      -18.614      86.744    -183.697
  H      -18.670      95.312    -181.337
  H      -17.675      88.199    -183.800
  H      -16.293      94.124    -180.202
  H      -18.727      95.193    -178.714
  H      -17.154      94.840    -177.960
  P      -17.781      94.883    -183.763
  C      -16.227      96.934    -183.361
  O      -17.545      96.444    -183.509
  O      -19.371      94.726    -183.750
  O      -17.160      94.317    -184.996
  H      -19.729      94.777    -184.657
  H      -15.477      96.175    -183.601
  H      -16.083      97.255    -182.327
  H      -16.089      97.791    -184.025
  H      -19.363      98.153    -176.222
  H      -18.415      99.231    -177.219
  H      -17.756      97.688    -176.728

 3  4  5  6  7  8  9  10  11  12  23  26  30  31  33  0
 6-311+G(2d,p)
 ****
 35  36  37  38 0
 6-311+G(2d,p)
 ****
 1  2  13  14  15  16  17  18  19  20  21  22  24  25  27  28  29 0
 3-21G
 ****
 32  34  39  40  41  42  43  44  45  46  47  48  49 0
 3-21G
 ****


