%nproc=1
%NoSave
%Mem=1900MB
#P OB98/GEN NMR

erre ene a

0 1
  C      -17.783      16.315     -76.543
  O      -17.451      15.957     -77.881
  P      -17.482      16.947     -79.130
  C      -16.074      15.727     -80.986
  O      -17.349      16.084     -80.469
  C      -15.454      14.575     -80.183
  O      -16.414      13.476     -80.125
  C      -14.177      14.026     -80.829
  O      -13.142      13.744     -79.895
  C      -14.693      12.867     -81.665
  O      -13.686      11.929     -82.012
  C      -15.836      12.338     -80.803
  N      -18.210       7.905     -81.678
  C      -17.105       8.165     -80.894
  N      -16.542       7.109     -80.270
  N      -16.584       9.354     -80.747
  C      -17.193      10.307     -81.485
  C      -18.286      10.170     -82.311
  C      -18.886       8.858     -82.428
  O      -19.878       8.577     -83.092
  N      -18.628      11.367     -82.888
  C      -17.734      12.219     -82.430
  N      -16.844      11.624     -81.566
  O      -16.619      18.160     -79.023
  O      -19.014      17.448     -79.182
  H      -12.931      12.425     -82.381
  H      -18.992      18.362     -79.529
  H      -18.583       6.973     -81.737
  H      -17.692      13.274     -82.676
  H      -15.487      11.637     -80.041
  H      -15.081      13.283     -82.603
  H      -16.815       6.154     -80.437
  H      -13.726      14.774     -81.492
  H      -15.611       7.267     -79.882
  H      -15.271      14.919     -79.159
  H      -15.450      16.623     -80.894
  H      -16.142      15.479     -82.046
  P      -11.806      14.570     -79.605
  C      -11.475      14.251     -77.083
  O      -11.039      13.884     -78.378
  O      -12.303      15.958     -78.986
  O      -10.952      14.816     -80.806
  H      -12.026      16.695     -79.565
  H      -10.720      13.937     -76.356
  H      -12.418      13.747     -76.856
  H      -11.609      15.334     -77.010
  H      -17.677      15.460     -75.908
  H      -18.794      16.662     -76.507
  H      -17.127      17.091     -76.208

 3  4  5  6  7  8  9  10  11  12  23  26  30  31 0
 6-311+G(2d,p)
 ****
 33  35  36  37  38 0
 6-311+G(2d,p)
 ****
 1  2  13  14  15  16  17  18  19  20  21  22  24  25 0
 3-21G
 ****
 27  28  29  32  34  39  40  41  42  43  44  45  46  47  48  49 0
 3-21G
 ****


