%nproc=1
%NoSave
%Mem=1900MB
#P OB98/GEN NMR

erre ene a

0 1
  C      527.818      23.461    -882.890
  O      527.425      22.484    -883.859
  P      528.189      21.076    -883.833
  C      530.702      20.373    -883.983
  O      529.722      21.390    -884.193
  C      532.106      20.961    -884.045
  O      532.224      22.049    -883.112
  C      533.215      19.982    -883.672
  O      533.570      19.124    -884.749
  C      534.331      20.924    -883.351
  O      534.954      21.402    -884.553
  C      533.598      22.062    -882.642
  N      536.533      22.347    -878.472
  C      536.842      22.438    -879.773
  N      536.003      22.352    -880.823
  C      534.740      22.096    -880.416
  C      534.306      21.949    -879.117
  C      535.264      22.089    -878.096
  N      534.958      22.022    -876.753
  N      532.941      21.688    -879.076
  C      532.572      21.717    -880.363
  N      533.619      21.947    -881.180
  O      527.640      20.351    -885.159
  O      527.967      20.262    -882.596
  H      535.436      20.653    -884.946
  H      527.734      19.374    -885.062
  H      537.876      22.633    -880.009
  H      531.552      21.542    -880.697
  H      534.018      23.052    -882.898
  H      535.124      20.455    -882.738
  H      532.942      19.401    -882.777
  H      532.279      21.350    -885.063
  H      530.575      19.626    -884.783
  H      535.650      22.336    -876.096
  H      533.966      22.052    -876.487
  H      530.510      19.897    -883.014
  P      534.643      17.980    -884.461
  C      536.946      18.197    -883.265
  O      536.021      18.748    -884.209
  O      534.851      17.283    -885.895
  O      534.217      17.001    -883.411
  H      535.135      16.365    -885.776
  H      537.939      18.667    -883.432
  H      537.026      17.129    -883.379
  H      536.628      18.435    -882.249
  H      527.232      24.347    -883.019
  H      528.854      23.696    -883.020
  H      527.662      23.070    -881.906

 3  4  5  6  7  8  9  10  11  12  22  25  29  30  31  32 0
 6-311+G(2d,p)
 ****
 33  36  37 0
 6-311+G(2d,p)
 ****
 1  2  13  14  15  16  17  18  19  20  21  23  24  26 0
 3-21G
 ****
 27  28  34  35  38  39  40  41  42  43  44  45  46  47  48 0
 3-21G
 ****


