%nproc=1
%NoSave
%Mem=1900MB
#P OB98/GEN NMR

erre ene a

0 1
  C     -281.817     244.045     114.808
  O     -282.432     243.340     113.757
  P     -282.290     243.740     112.219
  C     -280.599     241.871     111.528
  O     -280.851     243.260     111.698
  C     -280.110     241.572     110.103
  O     -279.791     240.162     110.006
  C     -281.205     241.856     109.056
  O     -280.734     242.494     107.877
  C     -281.874     240.498     108.892
  O     -282.611     240.369     107.688
  C     -280.698     239.548     109.065
  N     -282.715     235.026     107.911
  C     -282.326     236.046     107.066
  N     -282.687     235.911     105.771
  N     -281.676     237.108     107.464
  C     -281.483     237.154     108.804
  C     -281.826     236.205     109.741
  C     -282.515     235.022     109.286
  O     -282.980     234.148     110.015
  N     -281.541     236.624     111.017
  C     -281.055     237.838     110.855
  N     -281.037     238.218     109.532
  O     -282.754     245.105     111.835
  O     -283.275     242.671     111.513
  H     -282.074     240.755     106.969
  H     -283.680     243.118     110.741
  H     -283.288     234.269     107.555
  H     -280.735     238.497     111.654
  H     -280.157     239.405     108.123
  H     -282.592     240.386     109.715
  H     -283.313     235.180     105.462
  H     -281.936     242.568     109.451
  H     -282.636     236.743     105.191
  H     -279.191     242.136     109.908
  H     -281.546     241.357     111.714
  H     -279.875     241.519     112.264
  P     -281.574     243.163     106.697
  C     -281.905     245.450     107.813
  O     -282.537     244.283     107.324
  O     -282.603     242.033     106.229
  O     -280.757     243.632     105.538
  H     -282.689     242.057     105.255
  H     -282.616     245.992     108.448
  H     -281.621     246.089     106.974
  H     -281.021     245.200     108.401
  H     -282.064     243.582     115.741
  H     -282.164     245.057     114.810
  H     -280.756     244.032     114.673

 3  4  5  6  7  8  9  10  11  12  23  26  30  31 0
 6-311+G(2d,p)
 ****
 33  35  36  37  38 0
 6-311+G(2d,p)
 ****
 1  2  13  14  15  16  17  18  19  20  21  22  24  25 0
 3-21G
 ****
 27  28  29  32  34  39  40  41  42  43  44  45  46  47  48  49 0
 3-21G
 ****


