%nproc=1
%NoSave
%Mem=1900MB
#P OB98/GEN NMR

erre ene a

0 1
  C      -28.197     391.445     401.190
  O      -28.416     390.527     402.269
  P      -29.363     389.264     401.987
  C      -29.353     386.780     402.834
  O      -28.832     388.100     402.951
  C      -28.577     385.831     403.740
  O      -27.204     385.704     403.298
  C      -28.492     386.284     405.194
  O      -29.730     386.088     405.870
  C      -27.342     385.420     405.698
  O      -27.807     384.093     406.011
  C      -26.411     385.374     404.462
  N      -25.255     386.251     404.586
  C      -24.325     385.899     405.565
  O      -24.463     384.923     406.300
  N      -23.229     386.721     405.670
  C      -22.999     387.852     404.941
  O      -21.999     388.540     405.078
  C      -24.040     388.200     403.962
  C      -25.106     387.400     403.831
  O      -28.872     388.828     400.525
  O      -30.818     389.590     402.096
  H      -27.919     388.961     400.389
  H      -28.380     384.183     406.796
  H      -22.538     386.471     406.362
  H      -23.905     389.109     403.382
  H      -25.887     387.646     403.116
  H      -26.042     384.350     404.302
  H      -26.877     385.828     406.602
  H      -28.210     387.340     405.242
  H      -29.051     384.839     403.683
  H      -29.269     386.440     401.797
  H      -30.417     386.794     403.090
  P      -30.374     387.375     406.584
  C      -32.534     387.756     408.014
  O      -31.628     386.845     407.431
  O      -31.034     388.124     405.332
  O      -29.383     388.200     407.339
  H      -31.514     387.516     404.737
  H      -33.464     387.233     408.232
  H      -32.747     388.591     407.337
  H      -32.114     388.145     408.949
  H      -27.551     392.233     401.517
  H      -29.133     391.858     400.878
  H      -27.743     390.929     400.370

 3  4  5  6  7  8  9  10  11  12  13  24  28  29  30  31  32 0
 6-311+G(2d,p)
 ****
 33  34 0
 6-311+G(2d,p)
 ****
 1  2  14  15  16  17  18  19  20  21  22  23  25  26  27 0
 3-21G
 ****
 35  36  37  38  39  40  41  42  43  44  45 0
 3-21G
 ****


