%nproc=1
%NoSave
%Mem=1900MB
#P OB98/GEN NMR

erre ene a

0 1
  C      -20.944    -625.425    1166.251
  O      -19.916    -625.125    1165.342
  P      -19.283    -626.297    1164.414
  C      -17.472    -624.628    1163.625
  O      -17.746    -625.937    1164.151
  C      -16.122    -624.115    1164.108
  O      -16.220    -623.681    1165.511
  C      -15.022    -625.159    1164.078
  O      -14.581    -625.412    1162.766
  C      -13.973    -624.487    1164.979
  O      -13.223    -623.490    1164.275
  C      -14.868    -623.822    1166.056
  N      -14.893    -624.549    1167.309
  C      -13.918    -624.194    1168.240
  O      -13.052    -623.363    1167.953
  N      -13.921    -624.797    1169.489
  C      -14.783    -625.767    1169.722
  N      -14.808    -626.306    1170.980
  C      -15.714    -626.304    1168.689
  C      -15.734    -625.640    1167.526
  O      -20.066    -626.661    1163.188
  O      -19.182    -627.562    1165.414
  H      -19.568    -628.336    1164.969
  H      -12.596    -623.973    1163.684
  H      -16.331    -627.162    1168.914
  H      -16.374    -625.934    1166.731
  H      -14.518    -622.786    1166.260
  H      -13.263    -625.203    1165.398
  H      -15.352    -626.081    1164.548
  H      -15.850    -623.228    1163.502
  H      -14.149    -625.936    1171.651
  H      -18.264    -623.952    1163.952
  H      -15.611    -626.821    1171.343
  H      -17.502    -624.648    1162.519
  P      -14.698    -626.936    1162.247
  C      -12.470    -626.619    1160.994
  O      -13.230    -627.423    1161.861
  O      -15.441    -626.802    1160.843
  O      -15.456    -627.853    1163.191
  H      -16.077    -627.532    1160.710
  H      -11.398    -626.887    1161.112
  H      -12.569    -625.553    1161.262
  H      -12.755    -626.768    1159.957
  H      -21.232    -624.535    1166.770
  H      -20.597    -626.152    1166.955
  H      -21.786    -625.817    1165.720

 3  4  5  6  7  8  9  10  11  12  13  24  27  28  29  30  32 0
 6-311+G(2d,p)
 ****
 34  35 0
 6-311+G(2d,p)
 ****
 1  2  14  15  16  17  18  19  20  21  22  23  25  26 0
 3-21G
 ****
 31  33  36  37  38  39  40  41  42  43  44  45  46 0
 3-21G
 ****


