%nproc=1
%NoSave
%Mem=1900MB
#P OB98/GEN NMR

erre ene a

0 1
  C      103.557    -660.781     350.750
  O      102.989    -659.762     349.950
  H      104.113    -660.313     351.567
  H      104.242    -661.392     350.159
  H      102.766    -661.408     351.177
  P      102.153    -660.239     348.669
  C      103.172    -658.160     347.507
  O      102.900    -659.552     347.424
  C      104.535    -657.845     346.895
  O      105.587    -658.347     347.733
  C      104.755    -658.455     345.518
  O      104.181    -657.642     344.513
  C      106.273    -658.442     345.440
  O      106.729    -657.127     345.062
  C      106.694    -658.743     346.888
  N      110.416    -662.283     346.986
  C      110.385    -661.027     346.484
  N      109.347    -660.163     346.443
  C      108.253    -660.713     347.005
  C      108.133    -661.975     347.551
  C      109.282    -662.780     347.535
  N      109.310    -664.060     348.039
  N      106.856    -662.190     348.022
  C      106.229    -661.045     347.824
  N      107.026    -660.131     347.173
  O      100.676    -660.036     348.744
  O      102.618    -661.769     348.548
  H      107.681    -657.209     344.850
  H      103.569    -661.847     348.728
  H      111.315    -660.666     346.059
  H      105.222    -660.823     348.144
  H      107.564    -658.148     347.190
  H      106.666    -659.138     344.696
  H      104.401    -659.493     345.468
  H      104.635    -656.747     346.857
  H      103.149    -657.838     348.555
  H      110.112    -664.633     347.814
  H      108.436    -664.471     348.332
  H      102.377    -657.635     346.970
  P      104.053    -658.155     343.000
  C      103.613    -655.728     342.280
  O      104.418    -656.882     342.091
  O      102.761    -658.833     342.680
  O      105.313    -659.110     342.800
  H      105.193    -659.679     342.015
  H      103.946    -654.950     341.626
  H      103.693    -655.400     343.295
  H      102.593    -655.965     342.061

 6  7  8  9  10  11  12  13  14  15  25  28  32  33  34  35 0
 6-311+G(2d,p)
 ****
 36  39  40 0
 6-311+G(2d,p)
 ****
 1  2  3  4  5  16  17  18  19  20  21  22  23  24 0
 3-21G
 ****
 26  27  29  30  31  37  38  41  42  43  44  45  46  47 0
 3-21G
 ****
 48 0
 3-21G
 ****


