%nproc=1
%NoSave
%Mem=1900MB
#P OB98/GEN NMR

erre ene a

0 1
  C     -455.795     157.656     -41.987
  O     -457.076     157.066     -41.838
  P     -457.294     155.597     -42.453
  C     -458.321     154.670     -44.653
  O     -457.770     155.791     -43.974
  C     -459.142     155.120     -45.863
  O     -460.331     155.814     -45.391
  C     -458.404     156.070     -46.822
  O     -458.866     155.760     -48.142
  C     -458.903     157.429     -46.368
  O     -458.691     158.464     -47.310
  C     -460.362     157.097     -46.061
  N     -462.562     161.712     -46.011
  C     -462.079     160.959     -47.024
  N     -461.514     159.731     -46.961
  C     -461.484     159.288     -45.693
  C     -461.920     159.952     -44.559
  C     -462.484     161.223     -44.753
  N     -462.970     161.998     -43.717
  N     -461.695     159.193     -43.427
  C     -461.133     158.086     -43.872
  N     -461.004     158.090     -45.235
  O     -458.619     155.091     -41.714
  O     -456.149     154.654     -42.257
  H     -457.741     158.697     -47.344
  H     -458.561     154.140     -41.495
  H     -462.154     161.392     -48.016
  H     -460.792     157.268     -43.255
  H     -460.959     156.983     -46.976
  H     -458.371     157.714     -45.453
  H     -457.316     155.958     -46.786
  H     -459.478     154.225     -46.400
  H     -458.980     154.125     -43.973
  H     -463.168     162.964     -43.934
  H     -462.717     161.714     -42.777
  H     -457.512     153.999     -44.953
  P     -457.858     155.944     -49.377
  C     -457.478     157.848     -51.060
  O     -458.097     157.461     -49.852
  O     -458.625     155.125     -50.520
  O     -456.450     155.517     -49.141
  H     -459.556     155.399     -50.594
  H     -457.803     158.863     -51.310
  H     -457.766     157.174     -51.871
  H     -456.390     157.848     -50.940
  H     -455.794     158.625     -41.534
  H     -455.564     157.749     -43.028
  H     -455.061     157.039     -41.512

 3  4  5  6  7  8  9  10  11  12  22  25  29  30  31  32 0
 6-311+G(2d,p)
 ****
 33  36  37 0
 6-311+G(2d,p)
 ****
 1  2  13  14  15  16  17  18  19  20  21  23  24  26 0
 3-21G
 ****
 27  28  34  35  38  39  40  41  42  43  44  45  46  47  48 0
 3-21G
 ****


