%nproc=1
%NoSave
%Mem=1900MB
#P OB98/GEN NMR

erre ene a

0 1
  C      -11.353    -102.313     -16.306
  O      -12.070    -101.358     -17.067
  H      -10.875    -103.019     -16.995
  H      -12.022    -102.866     -15.643
  H      -10.574    -101.815     -15.722
  P      -13.083    -100.381     -16.292
  C      -15.407    -100.651     -15.196
  O      -14.370    -101.284     -15.947
  C      -16.514    -101.644     -14.838
  O      -16.062    -102.573     -13.827
  C      -17.760    -100.999     -14.241
  O      -18.484    -100.184     -15.132
  C      -18.451    -102.189     -13.593
  O      -19.217    -102.951     -14.528
  C      -17.233    -103.019     -13.106
  N      -17.045    -102.932     -11.662
  C      -16.316    -103.964     -11.077
  O      -15.865    -104.922     -11.708
  N      -16.149    -103.882      -9.719
  C      -16.666    -102.917      -8.905
  O      -16.497    -102.911      -7.689
  C      -17.461    -101.871      -9.574
  C      -17.611    -101.925     -10.904
  O      -13.413     -99.098     -16.996
  O      -12.396    -100.170     -14.861
  H      -19.418    -103.805     -14.099
  H      -12.791     -99.401     -14.383
  H      -15.611    -104.612      -9.280
  H      -17.897    -101.097      -8.956
  H      -18.191    -101.163     -11.420
  H      -17.371    -104.081     -13.367
  H      -19.125    -101.888     -12.788
  H      -17.443    -100.340     -13.421
  H      -16.758    -102.224     -15.737
  H      -15.827     -99.852     -15.816
  H      -14.982    -100.214     -14.286
  P      -19.133     -98.782     -14.728
  C      -21.504     -98.027     -13.914
  O      -20.526     -99.057     -13.982
  O      -19.087     -97.697     -15.756
  O      -18.180     -98.327     -13.498
  H      -18.113     -97.350     -13.535
  H      -22.362     -98.384     -13.384
  H      -21.790     -97.741     -14.905
  H      -21.096     -97.181     -13.402

 6  7  8  9  10  11  12  13  14  15  16  26  31  32  33  34  35 0
 6-311+G(2d,p)
 ****
 36  37 0
 6-311+G(2d,p)
 ****
 1  2  3  4  5  17  18  19  20  21  22  23  24  25 0
 3-21G
 ****
 27  28  29  30  38  39  40  41  42  43  44  45 0
 3-21G
 ****


