%nproc=1
%NoSave
%Mem=1900MB
#P OB98/GEN NMR

erre ene a

0 1
  C     -192.461    -151.869     -10.905
  O     -193.457    -151.274     -11.720
  P     -192.973    -150.568     -13.076
  C     -194.195    -149.653     -15.183
  O     -194.285    -150.411     -13.981
  C     -194.689    -150.475     -16.371
  O     -193.892    -151.663     -16.515
  C     -196.124    -150.957     -16.231
  O     -197.032    -149.907     -16.507
  C     -196.160    -152.090     -17.251
  O     -196.468    -151.593     -18.564
  C     -194.714    -152.640     -17.193
  N     -194.639    -153.940     -16.549
  C     -194.655    -155.046     -17.404
  O     -194.753    -154.884     -18.621
  N     -194.604    -156.305     -16.856
  C     -194.545    -156.442     -15.569
  N     -194.489    -157.712     -15.080
  C     -194.543    -155.300     -14.632
  C     -194.599    -154.091     -15.182
  O     -192.146    -151.721     -13.813
  O     -192.166    -149.326     -12.883
  H     -195.681    -151.081     -18.841
  H     -191.475    -151.340     -14.410
  H     -194.494    -155.472     -13.566
  H     -194.602    -153.199     -14.567
  H     -194.305    -152.739     -18.205
  H     -196.922    -152.834     -17.004
  H     -196.300    -151.358     -15.227
  H     -194.574    -149.870     -17.279
  H     -194.498    -158.471     -15.747
  H     -193.150    -149.376     -15.357
  H     -194.420    -157.923     -14.096
  H     -194.783    -148.737     -15.069
  P     -198.591    -150.193     -16.277
  C     -200.676    -148.702     -16.267
  O     -199.264    -148.742     -16.187
  O     -198.623    -150.673     -14.748
  O     -199.246    -151.177     -17.188
  H     -199.520    -150.977     -14.513
  H     -201.013    -147.689     -16.038
  H     -201.122    -149.394     -15.548
  H     -201.000    -148.960     -17.279
  H     -192.919    -152.300     -10.039
  H     -191.756    -151.123     -10.602
  H     -191.956    -152.633     -11.459

 3  4  5  6  7  8  9  10  11  12  13  21  23  27  28  29  30  32 0
 6-311+G(2d,p)
 ****
 34  35 0
 6-311+G(2d,p)
 ****
 1  2  14  15  16  17  18  19  20  22  24  25  26 0
 3-21G
 ****
 31  33  36  37  38  39  40  41  42  43  44  45  46 0
 3-21G
 ****


