%nproc=1
%NoSave
%Mem=1900MB
#P OB98/GEN NMR

erre ene a

0 1
  C     -122.753    -165.729      64.840
  O     -122.042    -165.686      63.617
  H     -123.586    -166.432      64.740
  H     -123.164    -164.746      65.088
  H     -122.098    -166.066      65.647
  P     -120.869    -164.607      63.456
  C     -122.703    -163.441      62.046
  O     -121.582    -163.278      62.906
  C     -123.796    -162.440      62.409
  O     -124.118    -162.535      63.814
  C     -123.387    -160.988      62.178
  O     -123.422    -160.671      60.803
  C     -124.391    -160.263      63.051
  O     -125.658    -160.144      62.395
  C     -124.484    -161.215      64.268
  N     -123.643    -160.792      65.382
  C     -124.119    -159.712      66.139
  O     -125.196    -159.182      65.854
  N     -123.344    -159.256      67.181
  C     -122.214    -159.826      67.453
  N     -121.504    -159.325      68.494
  C     -121.686    -160.977      66.694
  C     -122.439    -161.397      65.679
  O     -119.666    -165.028      62.677
  O     -120.502    -164.221      64.968
  H     -125.774    -160.970      61.885
  H     -119.807    -164.813      65.313
  H     -120.740    -161.424      66.958
  H     -122.123    -162.236      65.065
  H     -125.522    -161.280      64.623
  H     -124.049    -159.260      63.298
  H     -122.383    -160.814      62.592
  H     -124.700    -162.687      61.837
  H     -121.902    -158.531      68.989
  H     -123.073    -164.469      62.181
  H     -120.658    -159.744      68.856
  H     -122.412    -163.315      60.996
  P     -122.127    -160.059      60.071
  C     -123.142    -157.712      60.430
  O     -122.002    -158.552      60.616
  O     -122.111    -160.211      58.585
  O     -120.911    -160.808      60.798
  H     -120.832    -161.745      60.503
  H     -122.939    -156.741      60.831
  H     -123.984    -158.137      60.935
  H     -123.357    -157.629      59.385

 6  7  8  9  10  11  12  13  14  15  16  26  30  31  32  33  35 0
 6-311+G(2d,p)
 ****
 37  38 0
 6-311+G(2d,p)
 ****
 1  2  3  4  5  17  18  19  20  21  22  23  24  25 0
 3-21G
 ****
 27  28  29  34  36  39  40  41  42  43  44  45  46 0
 3-21G
 ****


