%nproc=1
%NoSave
%Mem=1900MB
#P OB98/GEN NMR

erre ene a

0 1
  C      -57.942     793.435    -226.470
  O      -57.278     794.443    -227.199
  H      -58.118     792.586    -227.133
  H      -58.909     793.798    -226.113
  H      -57.334     793.104    -225.628
  P      -56.929     795.835    -226.481
  C      -54.452     795.391    -225.966
  O      -55.765     795.484    -225.421
  C      -53.418     795.956    -224.992
  O      -53.575     797.397    -224.895
  C      -53.528     795.385    -223.568
  O      -52.233     795.008    -223.095
  C      -54.047     796.561    -222.753
  O      -53.718     796.466    -221.369
  C      -53.420     797.735    -223.507
  N      -54.043     799.004    -223.164
  C      -53.312     799.848    -222.325
  O      -52.197     799.506    -221.921
  N      -53.876     801.027    -221.917
  C      -55.089     801.322    -222.280
  N      -55.598     802.494    -221.814
  C      -55.909     800.447    -223.142
  C      -55.325     799.320    -223.549
  O      -58.105     796.552    -225.911
  O      -56.150     796.685    -227.590
  H      -54.043     797.277    -220.915
  H      -56.214     797.640    -227.362
  H      -56.911     800.731    -223.414
  H      -55.846     798.615    -224.186
  H      -52.342     797.808    -223.290
  H      -55.137     796.609    -222.835
  H      -54.193     794.527    -223.504
  H      -52.417     795.786    -225.411
  H      -55.004     803.058    -221.220
  H      -54.423     795.938    -226.911
  H      -56.535     802.815    -222.011
  H      -54.227     794.333    -226.149
  P      -52.148     793.602    -222.321
  C      -51.154     792.328    -224.349
  O      -52.212     792.428    -223.413
  O      -53.556     793.512    -221.560
  O      -50.997     793.520    -221.362
  H      -53.411     793.615    -220.599
  H      -51.336     791.504    -225.007
  H      -50.232     792.172    -223.829
  H      -51.095     793.232    -224.918

 6  7  8  9  10  11  12  13  14  15  16  26  30  31  32  33  35 0
 6-311+G(2d,p)
 ****
 37  38 0
 6-311+G(2d,p)
 ****
 1  2  3  4  5  17  18  19  20  21  22  23  24  25 0
 3-21G
 ****
 27  28  29  34  36  39  40  41  42  43  44  45  46 0
 3-21G
 ****


