%nproc=1
%NoSave
%Mem=1900MB
#P OB98/GEN NMR

erre ene a

0 1
  C      139.888      58.576    -200.541
  O      140.460      58.272    -201.797
  H      139.724      57.637    -200.000
  H      138.926      59.076    -200.672
  H      140.560      59.205    -199.948
  P      140.949      59.481    -202.734
  C      139.704      60.090    -204.912
  O      139.649      60.036    -203.491
  C      139.495      58.693    -205.491
  O      138.333      58.071    -204.894
  C      139.247      58.679    -206.997
  O      140.444      58.874    -207.714
  C      138.615      57.305    -207.169
  O      139.620      56.282    -207.215
  C      137.762      57.191    -205.886
  N      136.345      57.494    -206.112
  C      135.533      56.426    -206.510
  O      135.965      55.290    -206.696
  N      134.222      56.732    -206.709
  C      133.660      57.976    -206.670
  O      132.485      58.202    -206.946
  C      134.565      59.064    -206.272
  C      135.850      58.780    -206.015
  O      142.115      59.185    -203.616
  O      141.283      60.653    -201.693
  H      140.137      56.439    -208.028
  H      142.254      60.737    -201.600
  H      133.619      55.974    -207.007
  H      134.166      60.066    -206.214
  H      136.532      59.567    -205.726
  H      137.830      56.171    -205.477
  H      138.040      57.228    -208.091
  H      138.501      59.443    -207.257
  H      140.374      58.081    -205.239
  H      140.689      60.466    -205.214
  H      138.932      60.782    -205.272
  P      140.410      59.593    -209.148
  C      140.634      58.107    -211.232
  O      139.770      58.562    -210.194
  O      141.691      60.226    -209.581
  O      139.260      60.700    -208.988
  H      139.644      61.591    -209.132
  H      140.103      57.428    -211.866
  H      141.477      57.608    -210.801
  H      140.971      58.943    -211.808

 6  7  8  9  10  11  12  13  14  15  16  26  31  32  33  34  35 0
 6-311+G(2d,p)
 ****
 36  37 0
 6-311+G(2d,p)
 ****
 1  2  3  4  5  17  18  19  20  21  22  23  24  25 0
 3-21G
 ****
 27  28  29  30  38  39  40  41  42  43  44  45 0
 3-21G
 ****


