%nproc=1
%NoSave
%Mem=1900MB
#P OB98/GEN NMR

erre ene a

0 1
  C     -442.794    -133.521     145.426
  O     -444.180    -133.703     145.644
  H     -442.615    -132.477     145.157
  H     -442.455    -134.163     144.610
  H     -442.235    -133.752     146.337
  P     -444.646    -135.178     146.070
  C     -445.916    -134.654     148.286
  O     -446.000    -134.988     146.908
  C     -447.318    -134.470     148.878
  O     -447.821    -133.158     148.485
  C     -448.342    -135.503     148.387
  O     -449.324    -135.679     149.421
  C     -448.969    -134.779     147.206
  O     -450.161    -135.412     146.800
  C     -449.073    -133.376     147.797
  N     -452.552    -130.310     145.649
  C     -452.639    -131.191     146.667
  N     -451.666    -131.962     147.190
  C     -450.496    -131.743     146.569
  C     -450.252    -130.872     145.522
  C     -451.350    -130.131     145.051
  N     -451.268    -129.238     144.007
  N     -448.921    -130.923     145.141
  C     -448.376    -131.810     145.948
  N     -449.290    -132.337     146.819
  O     -443.568    -135.600     147.174
  O     -444.730    -136.171     144.959
  H     -450.787    -135.486     147.552
  H     -442.857    -136.123     146.760
  H     -453.622    -131.292     147.121
  H     -447.338    -132.114     145.941
  H     -449.876    -133.307     148.541
  H     -448.296    -134.789     146.342
  H     -447.898    -136.471     148.138
  H     -447.245    -134.464     149.971
  H     -445.345    -133.724     148.384
  H     -445.396    -135.452     148.824
  H     -452.106    -128.760     143.720
  H     -450.380    -129.108     143.540
  P     -450.403    -136.861     149.285
  C     -449.619    -138.398     151.251
  O     -450.617    -137.534     150.725
  O     -449.563    -137.990     148.513
  O     -451.649    -136.522     148.530
  H     -450.171    -138.551     147.990
  H     -449.926    -138.753     152.213
  H     -448.698    -137.862     151.346
  H     -449.482    -139.229     150.591

 6  7  8  9  10  11  12  13  14  15  25  28  32  33  34  35 0
 6-311+G(2d,p)
 ****
 36  37  40 0
 6-311+G(2d,p)
 ****
 1  2  3  4  5  16  17  18  19  20  21  22  23  24 0
 3-21G
 ****
 26  27  29  30  31  38  39 41  42  43  44  45  46  47  48 0
 3-21G
 ****


