%nproc=1
%NoSave
%Mem=1900MB
#P OB98/GEN NMR

erre ene a

0 1
  C     -130.998    -142.416    -264.285
  O     -130.227    -141.241    -264.142
  H     -130.880    -142.793    -265.302
  H     -132.054    -142.191    -264.114
  H     -130.663    -143.186    -263.582
  P     -130.063    -140.645    -262.663
  C     -128.588    -142.424    -261.471
  O     -128.642    -141.160    -262.118
  C     -127.634    -142.357    -260.279
  O     -127.935    -143.466    -259.382
  C     -126.150    -142.464    -260.657
  O     -125.396    -141.627    -259.775
  C     -125.826    -143.917    -260.360
  O     -124.445    -144.163    -260.126
  C     -126.699    -144.162    -259.126
  N     -126.938    -145.583    -258.880
  C     -126.850    -146.029    -257.565
  O     -126.670    -145.303    -256.588
  N     -126.979    -147.385    -257.392
  C     -127.158    -148.310    -258.376
  O     -127.248    -149.512    -258.156
  C     -127.236    -147.779    -259.744
  C     -127.121    -146.461    -259.931
  O     -131.118    -141.496    -261.813
  O     -130.279    -139.173    -262.535
  H     -131.990    -141.059    -261.814
  H     -124.170    -143.594    -259.381
  H     -126.916    -147.723    -256.444
  H     -127.366    -148.486    -260.552
  H     -127.150    -146.040    -260.930
  H     -126.244    -143.707    -258.240
  H     -126.145    -144.549    -261.197
  H     -125.933    -142.200    -261.696
  H     -127.831    -141.433    -259.722
  H     -128.223    -143.176    -262.175
  H     -129.593    -142.703    -261.141
  P     -124.531    -140.448    -260.439
  C     -126.487    -138.720    -260.687
  O     -125.280    -139.086    -260.038
  O     -124.875    -140.648    -261.988
  O     -123.084    -140.520    -260.096
  H     -125.791    -140.943    -262.140
  H     -126.837    -137.789    -260.291
  H     -127.225    -139.477    -260.522
  H     -126.310    -138.617    -261.737

 6  7  8  9  10  11  12  13  14  15  16  27  31  32  33  34  35 0
 6-311+G(2d,p)
 ****
 36  37 0
 6-311+G(2d,p)
 ****
 1  2  3  4  5  17  18  19  20  21  22  23  24  25 0
 3-21G
 ****
 26  28  29  30  38  39  40  41  42  43  44  45 0
 3-21G
 ****


