%nproc=1
%NoSave
%Mem=1900MB
#P OB98/GEN NMR

erre ene a

0 1
  C      -37.750     -52.172     -64.338
  O      -38.042     -53.548     -64.507
  P      -38.148     -54.455     -63.186
  C      -36.438     -55.740     -61.706
  O      -36.643     -54.801     -62.753
  C      -34.973     -56.164     -61.657
  O      -34.579     -56.788     -62.897
  C      -33.997     -55.012     -61.461
  O      -33.891     -54.618     -60.102
  C      -32.698     -55.646     -61.933
  O      -32.145     -56.470     -60.888
  C      -33.172     -56.515     -63.105
  N      -29.846     -55.514     -66.784
  C      -29.738     -56.368     -65.705
  N      -28.554     -57.000     -65.555
  N      -30.704     -56.588     -64.853
  C      -31.829     -55.880     -65.124
  C      -32.056     -55.006     -66.164
  C      -30.974     -54.765     -67.092
  O      -30.990     -53.980     -68.035
  N      -33.322     -54.488     -66.112
  C      -33.865     -55.046     -65.049
  N      -32.984     -55.865     -64.390
  O      -38.701     -55.852     -63.739
  O      -39.017     -53.893     -62.112
  H      -31.837     -55.862     -60.187
  H      -39.058     -56.385     -63.004
  H      -29.070     -55.375     -67.411
  H      -34.879     -54.875     -64.709
  H      -32.654     -57.478     -63.135
  H      -31.935     -54.907     -62.192
  H      -27.751     -56.826     -66.140
  H      -34.245     -54.164     -62.112
  H      -28.426     -57.584     -64.737
  H      -34.861     -56.905     -60.855
  H      -37.067     -56.616     -61.879
  H      -36.733     -55.288     -60.753
  P      -33.955     -53.043     -59.799
  C      -32.625     -51.001     -60.702
  O      -32.713     -52.408     -60.587
  O      -33.522     -52.954     -58.262
  O      -35.286     -52.419     -60.053
  H      -33.902     -52.157     -57.848
  H      -31.612     -50.738     -61.020
  H      -32.827     -50.515     -59.744
  H      -33.334     -50.645     -61.455
  H      -37.710     -51.696     -65.295
  H      -36.805     -52.066     -63.847
  H      -38.514     -51.716     -63.744

 3  4  5  6  7  8  9  10  11  12  23  26  30  31 0
 6-311+G(2d,p)
 ****
 33  35  36  37  38 0
 6-311+G(2d,p)
 ****
 1  2  13  14  15  16  17  18  19  20  21  22  24  25 0
 3-21G
 ****
 27  28  29  32  34  39  40  41  42  43  44  45  46  47  48  49 0
 3-21G
 ****


