%nproc=1
%NoSave
%Mem=1900MB
#P OB98/GEN NMR

erre ene a

0 1
  C       89.054    -193.755    -210.908
  O       88.370    -194.367    -209.838
  H       88.845    -192.680    -210.883
  H       88.709    -194.151    -211.866
  H       90.133    -193.903    -210.807
  P       88.345    -195.971    -209.746
  C       88.166    -195.645    -207.207
  O       87.610    -196.292    -208.347
  C       87.446    -194.330    -206.904
  O       86.069    -194.602    -206.534
  C       88.080    -193.527    -205.761
  O       88.201    -192.157    -206.152
  C       87.079    -193.666    -204.623
  O       87.176    -192.596    -203.686
  C       85.763    -193.767    -205.401
  N       84.672    -194.315    -204.605
  C       83.592    -193.464    -204.353
  O       83.609    -192.302    -204.764
  N       82.538    -193.931    -203.610
  C       82.578    -195.126    -203.114
  N       81.506    -195.526    -202.378
  C       83.719    -196.046    -203.315
  C       84.716    -195.583    -204.067
  O       89.673    -196.628    -209.922
  O       87.261    -196.419    -210.833
  H       86.380    -192.617    -203.110
  H       87.404    -197.369    -211.068
  H       83.711    -197.029    -202.872
  H       85.591    -196.191    -204.276
  H       85.456    -192.781    -205.777
  H       87.266    -194.605    -204.086
  H       89.063    -193.890    -205.471
  H       87.404    -193.741    -207.827
  H       80.745    -194.867    -202.266
  H       89.230    -195.464    -207.392
  H       81.433    -196.433    -201.940
  H       88.059    -196.317    -206.347
  P       89.628    -191.712    -206.738
  C       88.600    -190.167    -208.546
  O       89.454    -190.267    -207.417
  O       89.834    -192.701    -207.981
  O       90.743    -191.823    -205.748
  H       90.433    -193.429    -207.735
  H       88.581    -189.154    -208.890
  H       87.611    -190.470    -208.273
  H       88.965    -190.802    -209.326

 6  7  8  9  10  11  12  13  14  15  16  26  30  31  32  33  35 0
 6-311+G(2d,p)
 ****
 37  38 0
 6-311+G(2d,p)
 ****
 1  2  3  4  5  17  18  19  20  21  22  23  24  25 0
 3-21G
 ****
 27  28  29  34  36  39  40  41  42  43  44  45  46 0
 3-21G
 ****


