%nproc=1
%NoSave
%Mem=1900MB
#P OB98/GEN NMR

erre ene a

0 1
  C      295.536    1064.690     312.322
  O      296.088    1065.830     312.993
  P      297.539    1065.731     313.652
  C      297.004    1066.127     316.146
  O      297.590    1066.651     314.971
  C      297.270    1067.047     317.356
  O      298.692    1067.254     317.523
  C      296.616    1068.424     317.197
  O      295.823    1068.811     318.322
  C      297.778    1069.339     316.866
  O      297.537    1070.701     317.193
  C      298.947    1068.661     317.582
  N      300.230    1069.017     316.986
  C      301.022    1069.918     317.685
  O      300.641    1070.480     318.737
  N      302.238    1070.216     317.134
  C      302.697    1069.782     315.933
  O      303.781    1070.109     315.449
  C      301.808    1068.863     315.194
  C      300.624    1068.533     315.751
  O      298.690    1065.898     312.714
  O      297.541    1064.242     314.292
  H      298.389    1071.199     317.081
  H      298.436    1063.865     314.149
  H      302.845    1070.861     317.637
  H      302.116    1068.515     314.229
  H      299.935    1067.880     315.228
  H      298.991    1068.951     318.644
  H      297.955    1069.296     315.784
  H      295.888    1068.442     316.358
  H      296.872    1066.537     318.241
  H      297.434    1065.140     316.344
  H      295.932    1065.957     315.971
  P      294.220    1068.849     318.359
  C      293.747    1071.390     318.106
  O      293.759    1070.248     318.960
  O      293.559    1067.649     318.964
  O      293.823    1068.959     316.809
  H      293.047    1068.396     316.615
  H      293.773    1072.271     318.723
  H      292.825    1071.387     317.529
  H      294.614    1071.388     317.446
  H      294.565    1064.934     311.944
  H      295.456    1063.875     313.010
  H      296.174    1064.410     311.510

 3  4  5  6  7  8  9  10  11  12  13  23  28  29  30  31  32 0
 6-311+G(2d,p)
 ****
 33  34 0
 6-311+G(2d,p)
 ****
 1  2  14  15  16  17  18  19  20  21  22  24  25  26  27 0
 3-21G
 ****
 35  36  37  38  39  40  41  42  43  44  45 0
 3-21G
 ****


