%nproc=1
%NoSave
%Mem=1900MB
#P OB98/GEN NMR

erre ene a

0 1
  C      -33.688     315.906     -86.185
  O      -32.673     314.959     -86.452
  H      -33.489     316.415     -85.238
  H      -33.696     316.650     -86.988
  H      -34.664     315.416     -86.147
  P      -32.496     313.768     -85.393
  C      -31.831     311.863     -87.032
  O      -32.838     312.418     -86.192
  C      -32.193     312.109     -88.494
  O      -32.201     313.527     -88.773
  C      -31.219     311.497     -89.492
  O      -31.461     310.117     -89.701
  C      -31.544     312.310     -90.734
  O      -32.767     311.828     -91.322
  C      -31.753     313.712     -90.144
  N      -28.929     317.009     -92.853
  C      -30.073     316.354     -93.140
  N      -30.758     315.489     -92.366
  C      -30.149     315.323     -91.181
  C      -28.973     315.916     -90.750
  C      -28.351     316.806     -91.644
  N      -27.174     317.463     -91.363
  N      -28.638     315.473     -89.485
  C      -29.614     314.654     -89.149
  N      -30.544     314.523     -90.144
  O      -33.756     313.939     -84.419
  O      -31.201     313.745     -84.653
  H      -33.429     311.801     -90.605
  H      -33.585     313.491     -83.568
  H      -30.492     316.550     -94.124
  H      -29.690     314.134     -88.202
  H      -32.525     314.277     -90.671
  H      -30.771     312.247     -91.502
  H      -30.175     311.683     -89.205
  H      -33.211     311.731     -88.660
  H      -31.767     310.787     -86.850
  H      -26.722     317.927     -92.134
  H      -26.667     317.200     -90.531
  H      -30.869     312.327     -86.793
  P      -30.495     309.075     -88.956
  C      -32.373     307.275     -88.851
  O      -31.459     308.098     -88.129
  O      -29.804     309.966     -87.823
  O      -29.495     308.406     -89.841
  H      -28.931     309.604     -87.575
  H      -32.942     306.685     -88.163
  H      -31.829     306.630     -89.509
  H      -33.034     307.892     -89.423

 6  7  8  9  10  11  12  13  14  15  25  28  32  33  34  35 0
 6-311+G(2d,p)
 ****
 36  39  40 0
 6-311+G(2d,p)
 ****
 1  2  3  4  5  16  17  18  19  20  21  22  23  24 0
 3-21G
 ****
 26  27  29  30  31  37  38  41  42  43  44  45  46  47 0
 3-21G
 ****
 48 0
 3-21G
 ****


