%nproc=1
%NoSave
%Mem=1900MB
#P OB98/GEN NMR

erre ene a

0 1
  C      521.710     304.896     252.837
  O      521.256     304.315     254.043
  H      522.606     304.377     252.478
  H      520.920     304.798     252.089
  H      521.929     305.958     252.981
  P      522.315     304.261     255.252
  C      522.949     301.761     255.019
  O      522.303     302.754     255.794
  C      523.682     300.766     255.928
  O      524.831     301.390     256.523
  C      522.847     300.256     257.099
  O      521.924     299.231     256.688
  C      523.940     299.706     257.995
  O      524.330     298.386     257.538
  C      525.078     300.705     257.786
  N      527.699     302.158     261.959
  C      527.855     301.102     261.118
  N      527.113     300.778     260.043
  C      526.133     301.672     259.840
  C      525.855     302.785     260.608
  C      526.689     303.021     261.720
  N      526.526     304.076     262.599
  N      524.784     303.491     260.097
  C      524.415     302.802     259.038
  N      525.193     301.700     258.835
  O      521.598     305.087     256.411
  O      523.660     304.818     254.936
  H      524.590     298.476     256.607
  H      522.275     305.589     256.918
  H      528.672     300.434     261.346
  H      523.598     303.086     258.374
  H      526.048     300.196     257.674
  H      523.632     299.590     259.035
  H      522.313     301.083     257.618
  H      524.033     299.937     255.298
  H      523.682     302.238     254.347
  H      527.259     304.299     263.245
  H      525.774     304.735     262.398
  H      522.205     301.243     254.404
  P      520.369     299.463     257.006
  C      520.676     299.385     259.584
  O      520.107     298.766     258.439
  O      519.656     298.489     255.968
  O      519.886     300.871     256.876
  H      518.728     298.811     255.785
  H      520.424     298.820     260.457
  H      520.293     300.379     259.679
  H      521.740     299.421     259.478

 6  7  8  9  10  11  12  13  14  15  25  28  32  33  34  35 0
 6-311+G(2d,p)
 ****
 36  39  40 0
 6-311+G(2d,p)
 ****
 1  2  3  4  5  16  17  18  19  20  21  22  23  24 0
 3-21G
 ****
 26  27  29  30  31  37  38  41  42  43  44  45  46  47  48 0
 3-21G
 ****


