%nproc=1
%NoSave
%Mem=1900MB
#P OB98/GEN NMR

erre ene a

0 1
  C      104.454    -171.060     -72.311
  O      105.190    -170.267     -71.404
  H      104.596    -170.664     -73.321
  H      103.390    -171.026     -72.066
  H      104.809    -172.093     -72.287
  P      105.151    -170.711     -69.862
  C      107.082    -172.453     -69.805
  O      105.677    -172.227     -69.819
  C      107.598    -172.412     -68.370
  O      107.374    -171.095     -67.816
  C      106.891    -173.378     -67.426
  O      107.377    -174.702     -67.562
  C      107.209    -172.752     -66.072
  O      108.503    -173.145     -65.599
  C      107.200    -171.251     -66.391
  N      105.257    -167.616     -63.392
  C      106.528    -167.983     -63.659
  N      106.965    -168.954     -64.489
  C      105.928    -169.571     -65.082
  C      104.579    -169.309     -64.903
  C      104.250    -168.278     -64.011
  N      102.952    -167.929     -63.711
  N      103.815    -170.186     -65.649
  C      104.687    -170.951     -66.278
  N      105.973    -170.609     -65.966
  O      103.582    -170.844     -69.568
  O      105.821    -169.775     -68.913
  H      108.566    -172.841     -64.671
  H      103.250    -170.013     -69.180
  H      107.297    -167.425     -63.134
  H      104.436    -171.762     -66.950
  H      108.027    -170.721     -65.905
  H      106.482    -173.052     -65.317
  H      105.809    -173.344     -67.587
  H      108.677    -172.600     -68.383
  H      107.579    -171.669     -70.391
  H      107.288    -173.425     -70.264
  H      102.792    -167.194     -63.044
  H      102.198    -168.485     -64.086
  P      106.399    -175.915     -67.193
  C      107.085    -177.183     -69.357
  O      106.027    -176.673     -68.558
  O      105.036    -175.180     -66.784
  O      106.897    -176.808     -66.105
  H      104.955    -175.130     -65.813
  H      106.679    -177.657     -70.226
  H      107.647    -177.897     -68.791
  H      107.726    -176.380     -69.655

 6  7  8  9  10  11  12  13  14  15  25  28  32  33  34  35 0
 6-311+G(2d,p)
 ****
 36  37  40 0
 6-311+G(2d,p)
 ****
 1  2  3  4  5  16  17  18  19  20  21  22  23  24 0
 3-21G
 ****
 26  27  29  30  31  38  39 41  42  43  44  45  46  47  48 0
 3-21G
 ****


