%nproc=1
%NoSave
%Mem=1900MB
#P OB98/GEN NMR

erre ene a

0 1
  C     -415.326    -107.100      40.470
  O     -415.223    -105.971      41.314
  H     -414.490    -107.773      40.682
  H     -415.282    -106.802      39.420
  H     -416.266    -107.629      40.671
  P     -416.344    -104.838      41.135
  C     -414.658    -103.526      39.687
  O     -415.954    -104.108      39.757
  C     -414.349    -103.067      38.260
  O     -415.049    -101.822      38.015
  C     -412.854    -102.822      38.008
  O     -412.523    -103.260      36.691
  C     -412.723    -101.310      38.098
  O     -411.612    -100.818      37.356
  C     -414.088    -100.852      37.567
  N     -413.331     -95.849      36.888
  C     -412.960     -96.926      36.160
  N     -413.219     -98.231      36.411
  C     -413.977     -98.363      37.512
  C     -414.424     -97.360      38.361
  C     -414.065     -96.049      38.011
  N     -414.417     -94.949      38.761
  N     -415.145     -97.901      39.409
  C     -415.137     -99.202      39.195
  N     -414.433     -99.535      38.071
  O     -416.537    -103.935      42.305
  O     -417.618    -105.707      40.719
  H     -411.811    -100.913      36.397
  H     -417.388    -106.391      40.063
  H     -412.372     -96.717      35.269
  H     -415.614     -99.946      39.829
  H     -414.122    -100.802      36.473
  H     -412.596    -101.016      39.145
  H     -412.220    -103.329      38.738
  H     -414.756    -103.809      37.557
  H     -413.903    -104.249      40.015
  H     -414.124     -94.036      38.430
  H     -414.975     -95.068      39.589
  H     -414.638    -102.670      40.375
  P     -411.875    -104.713      36.510
  C     -409.544    -104.009      37.390
  O     -410.671    -104.871      37.558
  O     -411.555    -105.119      35.104
  O     -413.001    -105.679      37.136
  H     -413.046    -106.495      36.612
  H     -408.819    -104.217      38.149
  H     -409.860    -102.990      37.468
  H     -409.109    -104.175      36.427

 6  7  8  9  10  11  12  13  14  15  25  28  32  33  34  35 0
 6-311+G(2d,p)
 ****
 36  39  40 0
 6-311+G(2d,p)
 ****
 1  2  3  4  5  16  17  18  19  20  21  22  23  24 0
 3-21G
 ****
 26  27  29  30  31  37  38  41  42  43  44  45  46  47 0
 3-21G
 ****
 48 0
 3-21G
 ****


