%nproc=1
%NoSave
%Mem=1900MB
#P OB98/GEN NMR

erre ene a

0 1
  C      476.219    -251.811    -640.119
  O      475.588    -251.528    -641.370
  P      476.482    -251.362    -642.686
  C      476.669    -248.790    -642.393
  O      477.362    -250.021    -642.572
  C      477.613    -247.615    -642.656
  O      478.653    -247.529    -641.648
  C      478.371    -247.755    -643.976
  O      477.614    -247.623    -645.166
  C      479.533    -246.790    -643.783
  O      479.164    -245.440    -644.073
  C      479.829    -246.955    -642.272
  N      481.011    -247.774    -642.006
  C      482.219    -247.270    -642.484
  O      482.303    -246.234    -643.144
  N      483.325    -248.028    -642.231
  C      483.348    -249.236    -641.579
  O      484.371    -249.886    -641.399
  C      482.029    -249.725    -641.113
  C      480.947    -248.985    -641.352
  O      475.768    -251.538    -643.983
  O      477.590    -252.521    -642.499
  H      478.310    -245.273    -643.631
  H      477.735    -252.933    -643.375
  H      484.215    -247.689    -642.578
  H      482.012    -250.693    -640.599
  H      479.969    -249.336    -641.017
  H      479.978    -245.970    -641.806
  H      480.379    -247.042    -644.431
  H      478.799    -248.773    -644.008
  H      477.040    -246.683    -642.621
  H      476.274    -248.732    -641.375
  H      475.809    -248.767    -643.065
  P      477.442    -248.795    -646.233
  C      479.108    -247.627    -647.860
  O      478.751    -248.815    -647.180
  O      476.117    -248.934    -646.912
  O      477.698    -250.097    -645.320
  H      477.142    -250.840    -645.664
  H      479.997    -247.840    -648.462
  H      479.339    -246.833    -647.134
  H      478.296    -247.309    -648.519
  H      475.475    -251.889    -639.354
  H      476.900    -251.022    -639.876
  H      476.755    -252.734    -640.191

 3  4  5  6  7  8  9  10  11  12  13  23  28  29  30  31  32 0
 6-311+G(2d,p)
 ****
 33  34 0
 6-311+G(2d,p)
 ****
 1  2  14  15  16  17  18  19  20  21  22  24  25  26  27 0
 3-21G
 ****
 35  36  37  38  39  40  41  42  43  44  45 0
 3-21G
 ****


