%nproc=1
%NoSave
%Mem=1900MB
#P OB98/GEN NMR

erre ene a

0 1
  C     -242.018     225.500      -2.185
  O     -242.124     224.991      -3.498
  H     -242.857     226.178      -2.002
  H     -241.087     226.065      -2.075
  H     -242.053     224.693      -1.447
  P     -241.119     223.831      -3.963
  C     -241.152     221.966      -5.754
  O     -241.749     223.166      -5.278
  C     -242.036     221.314      -6.827
  O     -243.083     220.537      -6.161
  C     -242.740     222.318      -7.769
  O     -242.896     221.660      -9.039
  C     -244.075     222.487      -7.062
  O     -245.023     223.153      -7.852
  C     -244.345     221.025      -6.688
  N     -245.416     220.813      -5.717
  C     -246.709     220.664      -6.213
  O     -247.018     220.693      -7.404
  N     -247.688     220.479      -5.264
  C     -247.497     220.411      -3.912
  O     -248.412     220.211      -3.114
  C     -246.111     220.582      -3.454
  C     -245.153     220.769      -4.364
  O     -240.709     222.861      -2.901
  O     -239.857     224.635      -4.543
  H     -239.138     224.634      -3.883
  H     -245.811     223.361      -7.304
  H     -248.631     220.363      -5.601
  H     -245.926     220.550      -2.386
  H     -244.114     220.887      -4.055
  H     -244.560     220.444      -7.591
  H     -243.942     223.101      -6.164
  H     -242.175     223.247      -7.906
  H     -241.424     220.597      -7.400
  H     -241.040     221.282      -4.905
  H     -240.169     222.194      -6.166
  P     -242.027     222.023     -10.338
  C     -240.701     220.725     -12.145
  O     -241.666     220.655     -11.097
  O     -240.832     222.883     -10.052
  O     -243.041     222.759     -11.339
  H     -242.543     223.359     -11.924
  H     -240.556     219.750     -12.562
  H     -239.774     221.087     -11.752
  H     -241.050     221.391     -12.907

 6  7  8  9  10  11  12  13  14  15  16  27  31  32  33  34  35 0
 6-311+G(2d,p)
 ****
 36  37 0
 6-311+G(2d,p)
 ****
 1  2  3  4  5  17  18  19  20  21  22  23  24  25 0
 3-21G
 ****
 26  28  29  30  38  39  40  41  42  43  44  45 0
 3-21G
 ****


