%nproc=1
%NoSave
%Mem=1900MB
#P OB98/GEN NMR

erre ene a

0 1
  C      -18.037     -60.258     360.804
  O      -17.661     -61.166     361.820
  P      -18.068     -62.714     361.724
  C      -19.025     -62.597     364.116
  O      -19.292     -62.897     362.747
  C      -20.171     -61.791     364.728
  O      -20.247     -60.482     364.130
  C      -21.545     -62.417     364.531
  O      -21.735     -63.494     365.430
  C      -22.451     -61.219     364.775
  O      -22.666     -61.007     366.179
  C      -21.627     -60.061     364.169
  N      -22.109     -59.667     362.852
  C      -22.597     -58.358     362.747
  O      -22.633     -57.625     363.734
  N      -23.079     -57.931     361.531
  C      -23.094     -58.747     360.524
  N      -23.593     -58.270     359.352
  C      -22.619     -60.142     360.603
  C      -22.147     -60.531     361.785
  O      -16.944     -63.681     361.888
  O      -18.784     -62.812     360.292
  H      -21.787     -60.827     366.566
  H      -18.126     -62.773     359.557
  H      -22.661     -60.788     359.737
  H      -21.781     -61.540     361.932
  H      -21.663     -59.181     364.823
  H      -23.435     -61.347     364.317
  H      -21.654     -62.754     363.495
  H      -19.962     -61.666     365.798
  H      -23.936     -57.317     359.348
  H      -18.103     -62.009     364.166
  H      -23.684     -58.829     358.516
  H      -18.869     -63.529     364.667
  P      -22.161     -64.932     364.872
  C      -24.574     -64.594     365.672
  O      -23.733     -64.898     364.575
  O      -21.691     -66.097     365.680
  O      -21.517     -64.968     363.405
  H      -21.097     -65.837     363.263
  H      -25.549     -64.277     365.288
  H      -24.152     -63.791     366.280
  H      -24.709     -65.487     366.286
  H      -17.675     -59.281     361.047
  H      -19.104     -60.234     360.724
  H      -17.617     -60.572     359.872

 3  4  5  6  7  8  9  10  11  12  13  23  27  28  29  30  32 0
 6-311+G(2d,p)
 ****
 34  35 0
 6-311+G(2d,p)
 ****
 1  2  14  15  16  17  18  19  20  21  22  24  25  26 0
 3-21G
 ****
 31  33  36  37  38  39  40  41  42  43  44  45  46 0
 3-21G
 ****


