%nproc=1
%NoSave
%Mem=1900MB
#P OB98/GEN NMR

erre ene a

0 1
  C     -945.604    -629.425    1784.161
  O     -946.222    -629.247    1785.440
  P     -945.849    -627.946    1786.288
  C     -947.966    -626.556    1786.938
  O     -946.936    -626.813    1785.982
  C     -949.342    -626.654    1786.286
  O     -949.585    -627.975    1785.769
  C     -950.487    -626.356    1787.250
  O     -950.720    -624.960    1787.379
  C     -951.657    -627.006    1786.525
  O     -952.122    -626.120    1785.475
  C     -951.016    -628.260    1785.933
  N     -954.120    -632.128    1786.980
  C     -954.229    -631.100    1786.047
  N     -955.333    -631.127    1785.277
  N     -953.339    -630.161    1785.892
  C     -952.278    -630.284    1786.708
  C     -952.038    -631.239    1787.669
  C     -953.047    -632.265    1787.862
  O     -952.990    -633.179    1788.678
  N     -950.854    -631.007    1788.305
  C     -950.371    -629.937    1787.719
  N     -951.185    -629.447    1786.748
  O     -944.552    -627.403    1785.548
  O     -945.605    -628.219    1787.747
  H     -952.899    -626.560    1785.064
  H     -943.969    -626.925    1786.194
  H     -954.830    -632.818    1787.068
  H     -949.402    -629.481    1787.971
  H     -951.393    -628.505    1784.934
  H     -952.511    -627.188    1787.181
  H     -956.044    -631.860    1785.310
  H     -950.311    -626.848    1788.225
  H     -955.433    -630.419    1784.568
  H     -949.387    -625.945    1785.451
  H     -947.805    -625.551    1787.367
  H     -947.839    -627.257    1787.774
  P     -949.648    -624.091    1788.223
  C     -949.151    -621.975    1786.785
  O     -948.759    -623.303    1787.145
  O     -948.635    -625.202    1788.766
  O     -950.242    -623.284    1789.312
  H     -948.285    -624.952    1789.643
  H     -948.376    -621.543    1786.157
  H     -949.263    -621.366    1787.695
  H     -950.097    -621.986    1786.207
  H     -945.953    -630.335    1783.720
  H     -944.542    -629.471    1784.281
  H     -945.856    -628.602    1783.526

 3  4  5  6  7  8  9  10  11  12  23  26  30  31 0
 6-311+G(2d,p)
 ****
 33  35  36  37  38 0
 6-311+G(2d,p)
 ****
 1  2  13  14  15  16  17  18  19  20  21  22  24  25 0
 3-21G
 ****
 27  28  29  32  34  39  40  41  42  43  44  45  46  47  48  49 0
 3-21G
 ****


