%nproc=1
%NoSave
%Mem=1900MB
#P OB98/GEN NMR

erre ene a

0 1
  C      263.731     120.656      44.720
  O      263.927     121.240      43.443
  P      265.428     121.436      42.920
  C      265.808     123.806      43.915
  O      265.688     123.011      42.743
  C      266.271     125.222      43.566
  O      266.253     126.047      44.761
  C      267.692     125.280      42.994
  O      267.772     126.341      42.031
  C      268.535     125.686      44.185
  O      269.756     126.300      43.778
  C      267.568     126.617      44.916
  N      269.389     129.792      48.401
  C      268.935     130.058      47.126
  N      269.066     131.331      46.694
  N      268.395     129.160      46.347
  C      268.335     127.927      46.910
  C      268.738     127.544      48.170
  C      269.345     128.546      49.017
  O      269.793     128.369      50.144
  N      268.483     126.218      48.395
  C      267.967     125.783      47.262
  N      267.891     126.774      46.318
  O      265.357     120.894      41.416
  O      266.462     120.701      43.706
  H      269.519     127.153      43.362
  H      265.782     120.020      41.359
  H      269.809     130.517      48.961
  H      267.659     124.763      47.065
  H      267.551     127.615      44.461
  H      268.780     124.804      44.789
  H      269.532     132.054      47.220
  H      268.034     124.346      42.536
  H      268.781     131.542      45.746
  H      265.553     125.660      42.862
  H      266.539     123.347      44.582
  H      264.845     123.842      44.433
  P      268.195     125.909      40.542
  C      270.629     125.417      41.318
  O      269.776     126.139      40.453
  O      267.586     127.079      39.634
  O      267.706     124.560      40.135
  H      267.422     126.752      38.731
  H      271.276     124.771      40.719
  H      270.074     124.802      42.030
  H      271.251     126.125      41.873
  H      262.683     120.593      44.926
  H      264.205     121.260      45.465
  H      264.157     119.675      44.733

 3  4  5  6  7  8  9  10  11  12  23  26  30  31 0
 6-311+G(2d,p)
 ****
 33  35  36  37  38 0
 6-311+G(2d,p)
 ****
 1  2  13  14  15  16  17  18  19  20  21  22  24  25 0
 3-21G
 ****
 27  28  29  32  34  39  40  41  42  43  44  45  46  47  48  49 0
 3-21G
 ****


