%nproc=1
%NoSave
%Mem=1900MB
#P OB98/GEN NMR

erre ene a

0 1
  C       18.902      38.720     118.908
  O       17.806      38.989     119.761
  H       18.744      37.748     118.435
  H       19.833      38.685     119.480
  H       18.972      39.481     118.127
  P       17.816      40.346     120.612
  C       19.302      39.330     122.464
  O       19.176      40.331     121.462
  C       20.618      39.497     123.219
  O       21.721      39.581     122.296
  C       20.687      40.754     124.088
  O       20.031      40.543     125.326
  C       22.192      40.899     124.245
  O       22.673      39.944     125.212
  C       22.694      40.517     122.839
  N       25.966      43.494     120.349
  C       26.200      42.538     121.318
  N       27.484      42.374     121.699
  N       25.258      41.818     121.872
  C       24.016      42.140     121.444
  C       23.656      43.079     120.504
  C       24.713      43.822     119.850
  O       24.550      44.662     118.967
  N       22.293      43.191     120.399
  C       21.829      42.282     121.238
  N       22.837      41.620     121.906
  O       16.591      40.619     121.432
  O       18.077      41.492     119.524
  H       22.358      40.239     126.087
  H       17.238      41.854     119.185
  H       26.730      44.024     119.964
  H       20.781      42.057     121.396
  H       23.662      40.002     122.873
  H       22.489      41.889     124.594
  H       28.229      42.995     121.422
  H       20.300      41.630     123.558
  H       27.668      41.717     122.450
  H       20.774      38.594     123.825
  H       19.270      38.356     121.963
  H       18.465      39.387     123.168
  P       18.952      41.592     125.895
  C       20.309      42.222     128.005
  O       19.800      42.648     126.753
  O       17.805      40.979     126.618
  O       18.534      42.459     124.619
  H       17.813      42.041     124.086
  H       20.850      43.024     128.462
  H       20.964      41.389     127.859
  H       19.498      41.931     128.640

 6  7  8  9  10  11  12  13  14  15  26  29  33  34 0
 6-311+G(2d,p)
 ****
 36  38  39  40  41 0
 6-311+G(2d,p)
 ****
 1  2  3  4  5  16  17  18  19  20  21  22  23  24  25 0
 3-21G
 ****
 27  28  30  31  32  35  37  42  43  44  45  46  47 0
 3-21G
 ****
 48  49 0
 3-21G
 ****


