%nproc=1
%NoSave
%Mem=1900MB
#P OB98/GEN NMR

erre ene a

0 1
  C      867.054     688.786     771.830
  O      866.128     688.248     770.903
  H      868.028     688.326     771.652
  H      866.743     688.572     772.852
  H      867.150     689.871     771.682
  P      864.590     688.684     771.024
  C      864.082     686.502     772.329
  O      863.750     687.330     771.218
  C      863.009     685.429     772.546
  O      861.747     686.094     772.863
  C      862.750     684.540     771.312
  O      862.332     683.253     771.797
  C      861.599     685.266     770.659
  O      860.975     684.465     769.679
  C      860.776     685.658     771.888
  N      859.795     686.700     771.596
  C      858.774     686.349     770.710
  O      858.742     685.227     770.211
  N      857.831     687.297     770.393
  C      857.939     688.500     770.863
  N      856.983     689.397     770.491
  C      859.034     688.924     771.756
  C      859.921     687.980     772.084
  O      864.081     689.583     769.952
  O      864.497     689.373     772.468
  H      860.430     683.756     770.105
  H      864.443     690.345     772.363
  H      859.098     689.947     772.107
  H      860.765     688.195     772.733
  H      860.245     684.784     772.299
  H      861.951     686.164     770.135
  H      863.630     684.437     770.671
  H      863.289     684.823     773.420
  H      856.258     689.063     769.869
  H      864.156     687.143     773.209
  H      856.975     690.363     770.783
  H      865.058     686.019     772.152
  P      863.373     682.123     772.286
  C      863.952     681.494     769.856
  O      863.537     681.031     771.133
  O      863.044     681.560     773.640
  O      864.799     682.856     772.316
  H      865.337     682.465     773.028
  H      864.021     680.666     769.182
  H      864.909     681.966     769.941
  H      863.239     682.199     769.483

 6  7  8  9  10  11  12  13  14  15  16  26  30  31  32  33  35 0
 6-311+G(2d,p)
 ****
 37  38 0
 6-311+G(2d,p)
 ****
 1  2  3  4  5  17  18  19  20  21  22  23  24  25 0
 3-21G
 ****
 27  28  29  34  36  39  40  41  42  43  44  45  46 0
 3-21G
 ****


