%nproc=1
%NoSave
%Mem=1900MB
#P OB98/GEN NMR

erre ene a

0 1
  C      -73.102      83.580     114.093
  O      -73.838      84.551     114.844
  P      -73.328      84.873     116.333
  C      -74.014      83.870     118.655
  O      -73.909      83.692     117.249
  C      -75.385      83.406     119.140
  O      -76.419      84.317     118.696
  C      -75.799      82.038     118.619
  O      -75.098      80.997     119.280
  C      -77.299      82.071     118.885
  O      -77.570      81.765     120.261
  C      -77.642      83.548     118.596
  N      -78.291      83.743     117.306
  C      -79.683      83.733     117.320
  O      -80.344      83.546     118.341
  N      -80.293      83.923     116.111
  C      -79.662      84.090     114.912
  O      -80.264      84.267     113.860
  C      -78.193      84.043     114.953
  C      -77.583      83.873     116.129
  O      -74.227      86.142     116.699
  O      -71.856      85.094     116.409
  H      -75.120      86.099     116.317
  H      -78.484      82.068     120.437
  H      -81.302      83.932     116.102
  H      -77.660      84.145     114.016
  H      -76.498      83.833     116.179
  H      -78.310      83.939     119.374
  H      -77.849      81.347     118.274
  H      -75.615      81.980     117.539
  H      -75.375      83.405     120.238
  H      -73.881      84.926     118.907
  H      -73.210      83.310     119.142
  P      -73.864      80.338     118.489
  C      -73.615      79.115     116.193
  O      -74.465      79.734     117.133
  O      -73.570      79.049     119.394
  O      -72.697      81.256     118.326
  H      -74.377      78.579     119.658
  H      -74.220      78.480     115.539
  H      -72.860      78.497     116.680
  H      -73.125      79.880     115.584
  H      -73.547      83.464     113.127
  H      -73.119      82.643     114.608
  H      -72.089      83.908     113.982

 3  4  5  6  7  8  9  10  11  12  13  24  28  29  30  31  32 0
 6-311+G(2d,p)
 ****
 33  34 0
 6-311+G(2d,p)
 ****
 1  2  14  15  16  17  18  19  20  21  22  23  25  26  27 0
 3-21G
 ****
 35  36  37  38  39  40  41  42  43  44  45 0
 3-21G
 ****


