%nproc=1
%NoSave
%Mem=1900MB
#P OB98/GEN NMR

erre ene a

0 1
  C     -209.069     437.066    -104.405
  O     -208.666     438.034    -105.354
  H     -208.325     436.269    -104.380
  H     -210.030     436.638    -104.702
  H     -209.150     437.501    -103.408
  P     -209.416     439.447    -105.388
  C     -208.422     440.255    -103.149
  O     -208.505     440.468    -104.552
  C     -207.385     441.186    -102.512
  O     -206.068     440.857    -103.049
  C     -207.634     442.676    -102.788
  O     -207.143     443.408    -101.657
  C     -206.754     442.917    -104.002
  O     -206.507     444.294    -104.195
  C     -205.541     442.055    -103.643
  N     -204.699     441.767    -104.808
  C     -203.527     442.508    -104.929
  O     -203.204     443.385    -104.129
  N     -202.755     442.234    -106.026
  C     -203.067     441.358    -107.020
  O     -202.354     441.182    -107.998
  C     -204.345     440.639    -106.868
  C     -205.087     440.867    -105.785
  O     -210.854     439.425    -104.989
  O     -209.223     439.960    -106.892
  H     -205.869     444.425    -104.925
  H     -209.979     440.514    -107.157
  H     -201.899     442.757    -106.118
  H     -204.622     439.948    -107.646
  H     -206.032     440.352    -105.640
  H     -204.914     442.561    -102.892
  H     -207.235     442.541    -104.905
  H     -208.687     442.912    -102.964
  H     -207.347     440.983    -101.432
  H     -208.135     439.211    -102.983
  H     -209.400     440.428    -102.697
  P     -207.935     444.653    -101.028
  C     -210.109     443.440    -100.359
  O     -208.940     444.108     -99.901
  O     -208.582     445.539    -102.045
  O     -206.830     445.458    -100.194
  H     -207.073     446.399    -100.152
  H     -210.693     443.127     -99.519
  H     -209.828     442.584    -100.937
  H     -210.686     444.106    -100.966

 6  7  8  9  10  11  12  13  14  15  16  26  31  32  33  34  35 0
 6-311+G(2d,p)
 ****
 36  37 0
 6-311+G(2d,p)
 ****
 1  2  3  4  5  17  18  19  20  21  22  23  24  25 0
 3-21G
 ****
 27  28  29  30  38  39  40  41  42  43  44  45 0
 3-21G
 ****


