%nproc=1
%NoSave
%Mem=1900MB
#P OB98/GEN NMR

erre ene a

0 1
  C      614.223    -130.792    -726.959
  O      614.763    -130.687    -725.666
  H      613.167    -131.076    -726.876
  H      614.756    -131.569    -727.523
  H      614.286    -129.840    -727.499
  P      616.175    -129.942    -725.479
  C      617.214    -131.709    -723.898
  O      616.753    -130.380    -724.037
  C      616.988    -132.243    -722.474
  O      617.625    -131.350    -721.533
  C      615.489    -132.245    -722.143
  O      615.156    -133.257    -721.187
  C      615.278    -130.878    -721.502
  O      614.110    -130.814    -720.682
  C      616.595    -130.699    -720.749
  N      616.260    -126.643    -717.687
  C      615.621    -127.859    -717.588
  N      614.767    -128.008    -716.557
  N      615.803    -128.835    -718.434
  C      616.616    -128.503    -719.476
  C      617.280    -127.332    -719.688
  C      617.116    -126.273    -718.719
  O      617.642    -125.155    -718.753
  N      618.018    -127.369    -720.855
  C      617.790    -128.566    -721.345
  N      616.953    -129.313    -720.529
  O      615.761    -128.414    -725.233
  O      617.141    -130.079    -726.611
  H      614.068    -129.927    -720.313
  H      616.501    -127.820    -725.486
  H      616.104    -125.927    -716.987
  H      618.207    -128.960    -722.262
  H      616.542    -131.181    -719.771
  H      615.135    -130.147    -722.312
  H      614.467    -127.231    -715.971
  H      614.877    -132.373    -723.035
  H      614.088    -128.771    -716.625
  H      617.449    -133.219    -722.349
  H      618.289    -131.710    -724.137
  H      616.719    -132.352    -724.633
  P      614.847    -134.742    -721.745
  C      612.236    -134.871    -721.716
  O      613.464    -135.214    -721.104
  O      615.971    -135.635    -721.024
  O      614.932    -134.851    -723.237
  H      616.658    -135.883    -721.663
  H      611.427    -135.275    -721.143
  H      612.207    -135.273    -722.707
  H      612.145    -133.806    -721.760

 6  7  8  9  10  11  12  13  14  15  26  29  33  34 0
 6-311+G(2d,p)
 ****
 36  38  39  40  41 0
 6-311+G(2d,p)
 ****
 1  2  3  4  5  16  17  18  19  20  21  22  23  24  25 0
 3-21G
 ****
 27  28  30  31  32  35  37  42  43  44  45  46  47 0
 3-21G
 ****
 48  49 0
 3-21G
 ****


