%nproc=1
%NoSave
%Mem=1900MB
#P OB98/GEN NMR

erre ene a

0 1
  C     -363.614     623.210     511.066
  O     -362.489     623.092     510.214
  H     -364.509     622.942     510.495
  H     -363.723     624.239     511.432
  H     -363.519     622.520     511.907
  P     -361.085     623.689     510.731
  C     -359.947     622.371     508.820
  O     -360.106     623.642     509.458
  C     -358.947     622.441     507.670
  O     -359.490     623.200     506.564
  C     -357.642     623.146     508.032
  O     -356.842     622.475     508.976
  C     -357.072     623.455     506.644
  O     -356.386     622.338     506.082
  C     -358.363     623.743     505.842
  N     -358.549     625.163     505.570
  C     -358.121     625.607     504.317
  O     -357.600     624.874     503.485
  N     -358.281     626.946     504.070
  C     -358.779     627.878     504.960
  O     -358.872     629.059     504.674
  C     -359.163     627.353     506.270
  C     -359.042     626.044     506.524
  O     -360.522     623.044     511.964
  O     -361.377     625.257     510.905
  H     -356.248     622.544     505.129
  H     -360.676     625.691     511.446
  H     -358.003     627.280     503.168
  H     -359.553     628.064     506.999
  H     -359.322     625.637     507.480
  H     -358.336     623.222     504.864
  H     -356.379     624.289     506.673
  H     -357.894     624.120     508.482
  H     -358.754     621.416     507.319
  H     -360.930     622.073     508.432
  H     -359.633     621.624     509.564
  P     -355.574     623.130     509.691
  C     -357.010     623.100     511.879
  O     -355.736     622.955     511.280
  O     -355.146     624.468     509.175
  O     -354.409     622.067     509.337
  H     -353.577     622.582     509.230
  H     -356.927     622.950     512.935
  H     -357.682     622.376     511.468
  H     -357.385     624.084     511.687

 6  7  8  9  10  11  12  13  14  15  16  26  31  32  33  34  35 0
 6-311+G(2d,p)
 ****
 36  37 0
 6-311+G(2d,p)
 ****
 1  2  3  4  5  17  18  19  20  21  22  23  24  25 0
 3-21G
 ****
 27  28  29  30  38  39  40  41  42  43  44  45 0
 3-21G
 ****


