%nproc=1
%NoSave
%Mem=1900MB
#P OB98/GEN NMR

erre ene a

0 1
  C      634.597     128.268      39.256
  O      635.842     127.935      39.852
  P      635.924     127.171      41.264
  C      636.183     129.472      42.431
  O      636.722     128.182      42.247
  C      637.313     130.514      42.474
  O      636.714     131.842      42.493
  C      638.231     130.396      43.689
  O      639.556     130.758      43.260
  C      637.671     131.439      44.641
  O      638.626     131.870      45.616
  C      637.239     132.523      43.648
  N      636.242     133.436      44.206
  C      636.667     134.322      45.216
  O      637.824     134.310      45.621
  N      635.744     135.200      45.739
  C      634.500     135.153      45.358
  N      633.642     136.073      45.855
  C      633.995     134.150      44.384
  C      634.911     133.362      43.844
  O      636.467     125.796      41.211
  O      634.435     127.273      41.848
  H      638.212     132.568      46.150
  H      633.843     126.546      41.515
  H      632.950     134.123      44.124
  H      634.646     132.620      43.102
  H      638.104     133.100      43.304
  H      636.806     131.032      45.181
  H      638.257     129.384      44.120
  H      637.887     130.431      41.544
  H      634.060     136.841      46.383
  H      635.656     129.494      43.394
  H      632.779     136.292      45.385
  H      635.472     129.696      41.638
  P      640.761     129.743      43.569
  C      640.555     129.335      46.128
  O      641.245     129.984      45.081
  O      641.958     130.409      42.718
  O      640.548     128.324      43.136
  H      642.604     129.711      42.499
  H      641.020     129.615      47.081
  H      640.619     128.255      46.003
  H      639.502     129.654      46.146
  H      634.769     128.769      38.326
  H      634.048     128.911      39.912
  H      634.035     127.374      39.081

 3  4  5  6  7  8  9  10  11  12  13  23  27  28  29  30  32 0
 6-311+G(2d,p)
 ****
 34  35 0
 6-311+G(2d,p)
 ****
 1  2  14  15  16  17  18  19  20  21  22  24  25  26 0
 3-21G
 ****
 31  33  36  37  38  39  40  41  42  43  44  45  46 0
 3-21G
 ****


