%nproc=1
%NoSave
%Mem=1900MB
#P OB98/GEN NMR

erre ene a

0 1
  C     -531.677    -892.830     489.930
  O     -530.431    -892.190     489.599
  P     -529.198    -893.140     489.213
  C     -528.363    -893.370     491.661
  O     -528.816    -894.040     490.491
  C     -528.070    -894.370     492.795
  O     -527.071    -895.340     492.386
  C     -527.537    -893.690     494.070
  O     -527.945    -894.480     495.193
  C     -526.023    -893.850     493.906
  O     -525.351    -893.690     495.157
  C     -525.951    -895.240     493.282
  N     -521.894    -898.220     492.960
  C     -522.973    -898.260     493.830
  N     -522.976    -899.270     494.734
  N     -523.939    -897.400     493.830
  C     -523.815    -896.460     492.851
  C     -522.807    -896.310     491.936
  C     -521.723    -897.260     491.972
  O     -520.734    -897.270     491.234
  N     -523.016    -895.230     491.117
  C     -524.167    -894.730     491.542
  N     -524.703    -895.450     492.573
  O     -527.974    -892.100     489.104
  O     -529.384    -893.890     487.934
  H     -525.707    -892.870     495.572
  H     -527.725    -891.980     488.176
  H     -521.163    -898.910     493.021
  H     -524.638    -893.830     491.156
  H     -526.037    -896.030     494.027
  H     -525.653    -893.070     493.211
  H     -522.275    -900.000     494.762
  H     -527.841    -892.670     494.216
  H     -523.774    -899.350     495.357
  H     -528.991    -894.920     493.018
  H     -529.122    -892.650     491.998
  H     -527.478    -892.770     491.412
  P     -528.996    -893.810     496.196
  C     -527.163    -892.320     497.261
  O     -528.409    -892.380     496.583
  O     -528.845    -894.670     497.544
  O     -530.409    -893.820     495.712
  H     -529.653    -894.630     498.071
  H     -526.375    -892.030     496.544
  H     -526.901    -893.280     497.702
  H     -527.228    -891.560     498.049
  H     -532.409    -892.086     490.166
  H     -531.535    -893.471     490.775
  H     -532.013    -893.409     489.095

 3  4  5  6  7  8  9  10  11  12  23  26  30  31 0
 6-311+G(2d,p)
 ****
 33  35  36  37  38 0
 6-311+G(2d,p)
 ****
 1  2  13  14  15  16  17  18  19  20  21  22  24  25 0
 3-21G
 ****
 27  28  29  32  34  39  40  41  42  43  44  45  46  47  48  49 0
 3-21G
 ****


