%nproc=1
%NoSave
%Mem=1900MB
#P OB98/GEN NMR

erre ene a

0 1
  C      427.274     388.246       2.385
  O      425.943     388.054       1.960
  P      424.722     388.103       2.995
  C      423.923     385.708       2.476
  O      423.601     387.095       2.438
  C      422.822     384.888       1.790
  O      421.617     384.947       2.613
  C      422.465     385.417       0.387
  O      422.503     384.431      -0.648
  C      421.113     386.077       0.611
  O      420.346     386.232      -0.569
  C      420.519     385.193       1.712
  N      419.379     385.823       2.380
  C      418.133     385.682       1.777
  O      417.928     385.056       0.740
  N      417.098     386.336       2.386
  C      417.199     387.199       3.433
  O      416.245     387.834       3.862
  C      418.551     387.344       4.004
  C      419.559     386.639       3.478
  O      424.215     389.466       3.325
  O      425.289     387.300       4.264
  H      419.502     386.659      -0.323
  H      425.547     386.379       4.080
  H      416.185     386.243       1.957
  H      418.667     388.027       4.830
  H      420.565     386.727       3.877
  H      420.193     384.226       1.322
  H      421.294     387.083       1.010
  H      423.189     386.175       0.058
  H      423.162     383.849       1.745
  H      424.008     385.395       3.518
  H      424.895     385.542       1.999
  P      423.003     384.688      -2.146
  C      420.782     383.999      -3.311
  O      422.157     383.741      -3.121
  O      424.483     384.639      -2.341
  O      422.438     386.153      -2.480
  H      423.024     386.585      -3.126
  H      420.275     383.056      -3.545
  H      420.654     384.681      -4.153
  H      420.325     384.432      -2.416
  H      427.931     388.175       1.543
  H      427.531     387.495       3.103
  H      427.370     389.214       2.831

 3  4  5  6  7  8  9  10  11  12  13  23  28  29  30  31  32 0
 6-311+G(2d,p)
 ****
 33  34 0
 6-311+G(2d,p)
 ****
 1  2  14  15  16  17  18  19  20  21  22  24  25  26  27 0
 3-21G
 ****
 35  36  37  38  39  40  41  42  43  44  45 0
 3-21G
 ****


