%nproc=1
%NoSave
%Mem=1900MB
#P OB98/GEN NMR

erre ene a

0 1
  C     -109.693     -70.355     104.638
  O     -108.590     -69.469     104.545
  P     -108.888     -67.893     104.619
  C     -107.332     -65.797     104.946
  O     -107.497     -67.204     105.017
  C     -105.867     -65.426     105.187
  O     -105.522     -65.657     106.570
  C     -104.865     -66.239     104.378
  O     -104.799     -65.805     103.029
  C     -103.588     -66.017     105.180
  O     -103.008     -64.742     104.854
  C     -104.122     -66.003     106.627
  N     -103.917     -67.268     107.329
  C     -102.623     -67.780     107.310
  O     -101.687     -67.221     106.743
  N     -102.446     -68.977     107.954
  C     -103.424     -69.725     108.543
  O     -103.217     -70.811     109.068
  C     -104.776     -69.148     108.503
  C     -104.958     -67.967     107.908
  O     -109.773     -67.824     105.950
  O     -109.547     -67.364     103.392
  H     -109.563     -68.551     106.562
  H     -103.692     -64.072     105.043
  H     -101.512     -69.357     107.973
  H     -105.580     -69.717     108.954
  H     -105.949     -67.532     107.861
  H     -103.635     -65.207     107.203
  H     -102.829     -66.782     104.986
  H     -105.137     -67.301     104.409
  H     -105.747     -64.354     104.982
  H     -107.959     -65.326     105.708
  H     -107.658     -65.450     103.960
  P     -104.275     -66.881     101.952
  C     -104.207     -66.945      99.341
  O     -104.509     -66.221     100.512
  O     -105.409     -68.006     102.062
  O     -102.890     -67.369     102.219
  H     -106.304     -67.635     102.122
  H     -104.749     -66.500      98.502
  H     -104.501     -67.995      99.432
  H     -103.134     -66.885      99.139
  H     -109.346     -71.365     104.574
  H     -110.375     -70.161     103.837
  H     -110.191     -70.208     105.574

 3  4  5  6  7  8  9  10  11  12  13  24  28  29  30  31  32 0
 6-311+G(2d,p)
 ****
 33  34 0
 6-311+G(2d,p)
 ****
 1  2  14  15  16  17  18  19  20  21  22  23  25  26  27 0
 3-21G
 ****
 35  36  37  38  39  40  41  42  43  44  45 0
 3-21G
 ****


