%nproc=1
%NoSave
%Mem=1900MB
#P OB98/GEN NMR

erre ene a

0 1
  C     -770.392       6.356     415.829
  O     -769.441       6.696     416.817
  P     -767.906       6.275     416.639
  C     -766.680       8.460     417.199
  O     -767.085       7.570     416.164
  C     -766.955       9.910     416.777
  O     -768.378      10.194     416.882
  C     -766.266      10.947     417.655
  O     -764.889      11.052     417.331
  C     -767.086      12.195     417.333
  O     -766.654      12.795     416.103
  C     -768.499      11.607     417.174
  N     -772.893      10.229     419.383
  C     -772.403      10.006     418.157
  N     -771.238      10.439     417.614
  C     -770.566      11.194     418.503
  C     -770.961      11.544     419.797
  C     -772.179      11.004     420.242
  N     -772.664      11.172     421.532
  N     -770.015      12.362     420.387
  C     -769.080      12.522     419.476
  N     -769.334      11.785     418.352
  O     -767.676       5.045     415.819
  O     -767.392       6.055     418.139
  H     -766.874      12.160     415.391
  H     -767.095       5.132     418.256
  H     -773.012       9.390     417.496
  H     -768.197      13.139     419.581
  H     -769.031      12.059     416.327
  H     -767.010      12.955     418.121
  H     -766.390      10.692     418.718
  H     -766.661      10.026     415.730
  H     -765.604       8.331     417.366
  H     -773.466      10.613     421.783
  H     -772.013      11.460     422.249
  H     -767.216       8.227     418.114
  P     -763.786      10.458     418.328
  C     -762.761       8.752     416.703
  O     -763.530       8.936     417.870
  O     -764.066      10.659     419.783
  O     -762.434      11.196     417.879
  H     -761.862      11.330     418.663
  H     -763.395       8.933     415.821
  H     -762.397       7.725     416.678
  H     -761.905       9.442     416.676
  H     -771.355       6.719     416.121
  H     -770.429       5.292     415.721
  H     -770.112       6.799     414.896

 3  4  5  6  7  8  9  10  11  12  22  25  29  30  31  32 0
 6-311+G(2d,p)
 ****
 33  36  37 0
 6-311+G(2d,p)
 ****
 1  2  13  14  15  16  17  18  19  20  21  23  24  26 0
 3-21G
 ****
 27  28  34  35  38  39  40  41  42  43  44  45  46  47  48 0
 3-21G
 ****


