%nproc=1
%NoSave
%Mem=1900MB
#P OB98/GEN NMR

erre ene a

0 1
  C       65.896    -466.200     140.152
  O       65.497    -467.320     139.368
  P       63.937    -467.448     138.994
  C       63.902    -469.900     139.850
  O       63.359    -468.587     139.963
  C       64.088    -470.526     141.225
  O       65.090    -469.796     141.960
  C       62.848    -470.508     142.099
  O       61.954    -471.556     141.777
  C       63.461    -470.707     143.483
  O       63.709    -472.108     143.696
  C       64.782    -469.933     143.367
  N       65.928    -467.171     147.454
  C       66.144    -468.508     147.205
  N       66.776    -469.212     148.171
  N       65.768    -469.114     146.108
  C       65.179    -468.285     145.215
  C       64.911    -466.941     145.351
  C       65.289    -466.295     146.589
  O       65.066    -465.124     146.894
  N       64.316    -466.433     144.220
  C       64.265    -467.457     143.389
  N       64.744    -468.614     143.962
  O       63.972    -468.162     137.563
  O       63.190    -466.160     138.960
  H       64.147    -472.448     142.896
  H       63.159    -467.940     137.065
  H       66.256    -466.754     148.310
  H       63.883    -467.415     142.383
  H       65.609    -470.500     143.821
  H       62.804    -470.367     144.290
  H       67.207    -468.774     148.975
  H       62.350    -469.528     142.058
  H       66.982    -470.187     147.995
  H       64.447    -471.551     141.086
  H       64.880    -469.839     139.347
  H       63.234    -470.510     139.231
  P       60.494    -471.130     141.247
  C       59.506    -472.690     143.081
  O       59.505    -471.405     142.475
  O       60.136    -472.278     140.192
  O       60.440    -469.762     140.649
  H       59.506    -471.938     139.528
  H       60.518    -473.118     143.105
  H       58.845    -473.352     142.519
  H       59.143    -472.599     144.099
  H       66.951    -466.242     140.323
  H       65.381    -466.220     141.090
  H       65.655    -465.297     139.632

 3  4  5  6  7  8  9  10  11  12  23  26  30  31  33  0
 6-311+G(2d,p)
 ****
 35  36  37  38 0
 6-311+G(2d,p)
 ****
 1  2  13  14  15  16  17  18  19  20  21  22  24  25  27  28  29 0
 3-21G
 ****
 32  34  39  40  41  42  43  44  45  46  47  48  49 0
 3-21G
 ****


