%nproc=1
%NoSave
%Mem=1900MB
#P OB98/GEN NMR

erre ene a

0 1
  C      -12.809     139.549      22.816
  O      -13.332     140.084      24.018
  H      -11.720     139.639      22.838
  H      -13.192     140.106      21.957
  H      -13.075     138.492      22.729
  P      -14.926     140.023      24.193
  C      -15.240     142.129      22.719
  O      -15.495     140.740      22.874
  C      -16.341     142.786      21.889
  O      -16.198     142.444      20.498
  C      -17.753     142.364      22.277
  O      -18.202     143.084      23.413
  C      -18.519     142.756      21.022
  O      -18.780     144.173      21.033
  C      -17.521     142.416      19.899
  N      -19.594     139.947      15.904
  C      -19.719     141.221      16.335
  N      -19.172     141.796      17.426
  C      -18.430     140.910      18.112
  C      -18.211     139.578      17.794
  C      -18.827     139.098      16.625
  N      -18.689     137.799      16.185
  N      -17.396     138.980      18.730
  C      -17.082     139.948      19.568
  N      -17.713     141.127      19.257
  O      -15.453     140.517      25.495
  O      -15.206     138.475      23.888
  H      -19.200     144.387      21.888
  H      -14.633     138.159      23.168
  H      -20.337     141.867      15.717
  H      -16.395     139.854      20.402
  H      -17.538     143.166      19.101
  H      -19.488     142.256      20.953
  H      -17.825     141.280      22.415
  H      -16.220     143.873      21.972
  H      -14.267     142.287      22.239
  H      -19.297     137.495      15.439
  H      -18.220     137.140      16.788
  H      -15.207     142.571      23.719
  P      -19.211     142.410      24.461
  C      -20.961     143.653      23.045
  O      -20.672     142.481      23.799
  O      -19.132     142.948      25.849
  O      -18.864     140.851      24.408
  H      -18.924     140.457      25.300
  H      -21.955     143.590      22.655
  H      -20.265     143.738      22.237
  H      -20.880     144.513      23.677

 6  7  8  9  10  11  12  13  14  15  25  28  32  33  34  35 0
 6-311+G(2d,p)
 ****
 36  39  40 0
 6-311+G(2d,p)
 ****
 1  2  3  4  5  16  17  18  19  20  21  22  23  24 0
 3-21G
 ****
 26  27  29  30  31  37  38  41  42  43  44  45  46  47 0
 3-21G
 ****
 48 0
 3-21G
 ****


