%nproc=1
%NoSave
%Mem=1900MB
#P OB98/GEN NMR

erre ene a

0 1
  C     -405.617     626.030      57.191
  O     -406.622     625.342      57.933
  P     -408.031     625.098      57.212
  C     -409.628     625.841      59.114
  O     -409.046     626.159      57.857
  C     -411.131     626.125      59.091
  O     -411.358     627.516      58.822
  C     -411.901     625.363      58.020
  O     -412.190     624.030      58.414
  C     -413.172     626.198      57.930
  O     -414.077     625.819      58.983
  C     -412.647     627.625      58.169
  N     -414.413     631.472      55.374
  C     -414.841     630.995      56.596
  N     -415.875     631.656      57.171
  N     -414.310     629.964      57.199
  C     -413.264     629.428      56.529
  C     -412.745     629.814      55.312
  C     -413.374     630.922      54.631
  O     -413.079     631.348      53.513
  N     -411.667     629.035      54.963
  C     -411.513     628.215      55.979
  N     -412.472     628.393      56.948
  O     -408.519     623.700      57.831
  O     -407.975     625.057      55.722
  H     -414.781     626.489      59.011
  H     -409.128     623.258      57.208
  H     -414.843     632.281      54.962
  H     -410.726     627.479      56.053
  H     -413.304     628.190      58.837
  H     -413.712     626.060      56.986
  H     -416.237     632.527      56.819
  H     -411.374     625.397      57.058
  H     -416.178     631.340      58.084
  H     -411.532     625.898      60.090
  H     -409.163     626.446      59.897
  H     -409.443     624.780      59.333
  P     -411.933     622.885      57.312
  C     -414.352     622.686      56.369
  O     -413.024     623.145      56.172
  O     -412.453     621.557      58.040
  O     -410.514     622.770      56.862
  H     -411.994     620.774      57.682
  H     -414.651     622.784      57.423
  H     -414.425     621.645      56.070
  H     -415.029     623.291      55.764
  H     -404.734     626.123      57.788
  H     -405.973     627.004      56.926
  H     -405.390     625.479      56.302

 3  4  5  6  7  8  9  10  11  12  23  26  30  31  33  0
 6-311+G(2d,p)
 ****
 35  36  37  38 0
 6-311+G(2d,p)
 ****
 1  2  13  14  15  16  17  18  19  20  21  22  24  25  27  28  29 0
 3-21G
 ****
 32  34  39  40  41  42  43  44  45  46  47  48  49 0
 3-21G
 ****


