%nproc=1
%NoSave
%Mem=1900MB
#P OB98/GEN NMR

erre ene a

0 1
  C     -138.642     185.956     141.244
  O     -139.241     184.655     141.146
  P     -139.174     183.560     142.316
  C     -141.334     183.825     143.715
  O     -140.675     183.116     142.672
  C     -141.860     182.858     144.781
  O     -142.200     183.579     145.989
  C     -143.140     182.122     144.414
  O     -142.924     181.104     143.456
  C     -143.593     181.613     145.781
  O     -142.942     180.380     146.121
  C     -143.117     182.735     146.724
  N     -144.213     183.512     147.279
  C     -144.408     183.425     148.659
  O     -143.726     182.657     149.338
  N     -145.385     184.201     149.235
  C     -146.165     184.916     148.485
  N     -147.103     185.678     149.113
  C     -146.081     184.928     147.014
  C     -145.091     184.214     146.483
  O     -138.378     183.990     143.503
  O     -138.539     182.256     141.638
  H     -138.090     181.720     142.319
  H     -141.982     180.539     146.052
  H     -146.779     185.505     146.424
  H     -144.947     184.179     145.408
  H     -142.524     182.314     147.544
  H     -144.671     181.428     145.816
  H     -143.876     182.843     144.034
  H     -141.062     182.142     145.014
  H     -147.127     185.652     150.123
  H     -142.181     184.371     143.283
  H     -147.744     186.286     148.623
  H     -140.641     184.551     144.153
  P     -143.714     181.236     142.066
  C     -142.297     182.898     140.665
  O     -142.639     181.550     140.920
  O     -144.524     182.608     142.221
  O     -144.633     180.097     141.767
  H     -145.408     182.514     141.819
  H     -141.281     182.930     140.264
  H     -142.341     183.505     141.575
  H     -142.983     183.309     139.921
  H     -138.822     186.500     140.341
  H     -137.588     185.853     141.394
  H     -139.070     186.484     142.070

 3  4  5  6  7  8  9  10  11  12  13  24  27  28  29  30  32 0
 6-311+G(2d,p)
 ****
 34  35 0
 6-311+G(2d,p)
 ****
 1  2  14  15  16  17  18  19  20  21  22  23  25  26 0
 3-21G
 ****
 31  33  36  37  38  39  40  41  42  43  44  45  46 0
 3-21G
 ****


