%nproc=1
%NoSave
%Mem=1900MB
#P OB98/GEN NMR

erre ene a

0 1
  C      249.897    -102.887    -141.548
  O      249.550    -102.639    -142.894
  P      250.279    -103.337    -144.132
  C      252.646    -103.316    -145.208
  O      251.798    -102.811    -144.179
  C      253.752    -102.330    -145.610
  O      253.171    -101.227    -146.336
  C      254.403    -101.728    -144.358
  O      255.431    -102.428    -143.683
  C      254.749    -100.293    -144.743
  O      256.118    -100.144    -145.124
  C      253.830    -100.013    -145.933
  N      252.916     -95.238    -144.487
  C      254.100     -95.807    -144.915
  N      255.211     -95.052    -144.757
  N      254.185     -97.009    -145.428
  C      253.004     -97.674    -145.435
  C      251.767     -97.215    -145.049
  C      251.683     -95.872    -144.523
  O      250.667     -95.363    -144.055
  N      250.811     -98.194    -145.124
  C      251.478     -99.261    -145.519
  N      252.817     -99.007    -145.681
  O      249.509    -103.414    -145.410
  O      250.458    -104.844    -143.584
  H      256.262     -99.206    -145.361
  H      250.375    -105.446    -144.349
  H      252.928     -94.338    -144.026
  H      251.044    -100.245    -145.665
  H      254.411     -99.672    -146.800
  H      254.590     -99.619    -143.894
  H      255.203     -94.187    -144.234
  H      253.610    -101.631    -143.607
  H      256.110     -95.497    -144.898
  H      254.465    -102.797    -146.296
  H      252.015    -103.558    -146.064
  H      253.106    -104.253    -144.874
  P      255.578    -102.600    -142.101
  C      255.676    -101.087    -140.039
  O      255.786    -101.153    -141.451
  O      257.014    -103.284    -141.909
  O      254.516    -103.432    -141.455
  H      257.049    -103.743    -141.050
  H      255.529    -100.045    -139.741
  H      256.599    -101.461    -139.584
  H      254.828    -101.681    -139.685
  H      249.270    -102.305    -140.905
  H      250.920    -102.618    -141.388
  H      249.764    -103.926    -141.331

 3  4  5  6  7  8  9  10  11  12  23  26  30  31 0
 6-311+G(2d,p)
 ****
 33  35  36  37  38 0
 6-311+G(2d,p)
 ****
 1  2  13  14  15  16  17  18  19  20  21  22  24  25 0
 3-21G
 ****
 27  28  29  32  34  39  40  41  42  43  44  45  46  47  48  49 0
 3-21G
 ****


