%nproc=1
%NoSave
%Mem=1900MB
#P OB98/GEN NMR

erre ene a

0 1
  C     -135.959     111.850     -53.607
  O     -136.113     112.603     -54.792
  H     -134.974     112.061     -53.182
  H     -136.024     110.783     -53.830
  H     -136.725     112.128     -52.879
  P     -137.499     112.435     -55.581
  C     -137.429     114.657     -56.920
  O     -137.328     113.240     -56.964
  C     -136.857     115.272     -58.198
  O     -135.415     115.083     -58.207
  C     -137.415     114.653     -59.487
  O     -137.572     115.688     -60.464
  C     -136.299     113.722     -59.930
  O     -136.352     113.446     -61.326
  C     -135.075     114.516     -59.487
  N     -131.541     112.215     -62.229
  C     -132.588     113.027     -62.617
  N     -132.721     113.263     -63.941
  N     -133.436     113.561     -61.778
  C     -133.171     113.263     -60.483
  C     -132.176     112.464     -59.972
  C     -131.256     111.861     -60.913
  O     -130.324     111.114     -60.633
  N     -132.265     112.381     -58.604
  C     -133.309     113.129     -58.292
  N     -133.888     113.686     -59.400
  O     -138.516     113.349     -54.749
  O     -137.991     111.035     -55.728
  H     -135.588     112.874     -61.548
  H     -139.425     112.997     -54.803
  H     -130.923     111.819     -62.917
  H     -133.683     113.294     -57.292
  H     -134.839     115.338     -60.176
  H     -136.366     112.771     -59.389
  H     -132.086     112.911     -64.642
  H     -138.364     114.132     -59.348
  H     -133.475     113.867     -64.247
  H     -137.032     116.355     -58.173
  H     -136.869     115.028     -56.055
  H     -138.481     114.939     -56.812
  P     -139.040     115.928     -61.061
  C     -138.905     118.518     -60.947
  O     -139.082     117.371     -61.764
  O     -139.932     116.130     -59.746
  O     -139.549     114.796     -61.890
  H     -140.498     115.350     -59.610
  H     -138.958     119.399     -61.552
  H     -137.949     118.471     -60.468
  H     -139.675     118.549     -60.204

 6  7  8  9  10  11  12  13  14  15  26  29  33  34 0
 6-311+G(2d,p)
 ****
 36  38  39  40  41 0
 6-311+G(2d,p)
 ****
 1  2  3  4  5  16  17  18  19  20  21  22  23  24  25 0
 3-21G
 ****
 27  28  30  31  32  35  37  42  43  44  45  46  47 0
 3-21G
 ****
 48  49 0
 3-21G
 ****


