%nproc=1
%NoSave
%Mem=1900MB
#P OB98/GEN NMR

erre ene a

0 1
  C       66.095    -667.607    -896.460
  O       65.904    -668.538    -895.390
  P       65.771    -670.095    -895.760
  C       67.558    -670.970    -894.080
  O       67.169    -670.798    -895.440
  C       68.407    -672.231    -893.910
  O       67.633    -673.432    -894.170
  C       69.616    -672.291    -894.850
  O       70.714    -671.564    -894.350
  C       69.927    -673.782    -894.830
  O       70.670    -674.105    -893.640
  C       68.527    -674.405    -894.780
  N       68.622    -677.964    -898.390
  C       69.256    -677.921    -897.150
  N       70.028    -678.983    -896.850
  N       69.155    -676.927    -896.320
  C       68.338    -675.944    -896.750
  C       67.657    -675.859    -897.950
  C       67.802    -676.965    -898.870
  O       67.277    -677.052    -900.000
  N       66.938    -674.705    -898.040
  C       67.164    -674.082    -896.910
  N       68.023    -674.777    -896.100
  O       65.742    -670.075    -897.370
  O       64.564    -670.755    -895.190
  H       71.513    -673.622    -893.700
  H       65.250    -670.850    -897.690
  H       68.755    -678.736    -899.000
  H       66.726    -673.122    -896.620
  H       68.495    -675.309    -894.150
  H       70.545    -674.080    -895.690
  H       70.120    -679.821    -897.420
  H       69.321    -671.980    -895.880
  H       70.476    -678.983    -895.940
  H       68.762    -672.254    -892.870
  H       66.670    -671.032    -893.440
  H       68.093    -670.085    -893.750
  P       71.461    -670.549    -895.340
  C       71.734    -668.961    -893.290
  O       71.372    -669.096    -894.660
  O       70.453    -670.449    -896.590
  O       72.831    -670.984    -895.770
  H       70.953    -670.306    -897.420
  H       71.768    -667.894    -893.050
  H       72.737    -669.400    -893.110
  H       70.988    -669.464    -892.660
  H       66.166    -666.616    -896.062
  H       65.265    -667.663    -897.134
  H       66.997    -667.846    -896.984

 3  4  5  6  7  8  9  10  11  12  23  26  30  31 0
 6-311+G(2d,p)
 ****
 33  35  36  37  38 0
 6-311+G(2d,p)
 ****
 1  2  13  14  15  16  17  18  19  20  21  22  24  25 0
 3-21G
 ****
 27  28  29  32  34  39  40  41  42  43  44  45  46  47  48  49 0
 3-21G
 ****


