%nproc=1
%NoSave
%Mem=1900MB
#P OB98/GEN NMR

erre ene a

0 1
  C       49.456      15.814     148.676
  O       48.122      15.889     148.225
  H       49.699      14.768     148.877
  H       49.564      16.385     149.603
  H       50.151      16.198     147.926
  P       47.620      17.237     147.524
  C       46.235      16.423     145.504
  O       46.207      16.916     146.835
  C       46.372      14.896     145.483
  O       45.130      14.292     145.919
  C       46.629      14.403     144.056
  O       47.378      13.192     144.033
  C       45.226      14.132     143.536
  O       45.205      13.225     142.438
  C       44.545      13.606     144.797
  N       40.066      12.390     142.696
  C       41.342      12.050     142.291
  N       41.437      11.306     141.168
  N       42.424      12.420     142.924
  C       42.180      13.223     143.988
  C       40.964      13.649     144.470
  C       39.772      13.199     143.785
  O       38.617      13.486     144.088
  N       41.117      14.470     145.559
  C       42.420      14.548     145.731
  N       43.109      13.796     144.810
  O       48.594      17.395     146.260
  O       47.639      18.463     148.386
  H       45.764      13.603     141.733
  H       48.653      18.328     145.992
  H       39.266      12.066     142.182
  H       42.914      15.125     146.504
  H       44.736      12.532     144.922
  H       44.803      15.077     143.183
  H       40.651      11.149     140.556
  H       47.144      15.150     143.451
  H       42.348      11.298     140.702
  H       47.147      14.575     146.187
  H       47.096      16.882     145.007
  H       45.338      16.737     144.965
  P       48.976      13.309     144.053
  C       49.489      11.316     145.679
  O       49.569      11.854     144.372
  O       49.275      14.155     145.374
  O       49.545      13.950     142.832
  H       49.528      15.068     145.140
  H       49.936      10.344     145.692
  H       48.463      11.241     145.972
  H       50.008      11.957     146.361

 6  7  8  9  10  11  12  13  14  15  26  29  33  34 0
 6-311+G(2d,p)
 ****
 36  38  39  40  41 0
 6-311+G(2d,p)
 ****
 1  2  3  4  5  16  17  18  19  20  21  22  23  24  25 0
 3-21G
 ****
 27  28  30  31  32  35  37  42  43  44  45  46  47 0
 3-21G
 ****
 48  49 0
 3-21G
 ****


