%nproc=1
%NoSave
%Mem=1900MB
#P OB98/GEN NMR

erre ene a

0 1
  C     -896.382     474.933    1089.574
  O     -896.842     473.696    1090.075
  H     -895.572     475.286    1090.197
  H     -897.192     475.666    1089.571
  H     -896.002     474.787    1088.540
  P     -898.112     473.028    1089.364
  C     -896.672     471.452    1087.869
  O     -897.672     471.560    1088.881
  C     -895.902     470.139    1088.051
  O     -895.262     470.120    1089.381
  C     -896.762     468.895    1088.007
  O     -897.102     468.513    1086.691
  C     -895.862     467.891    1088.694
  O     -894.922     467.297    1087.777
  C     -895.142     468.738    1089.764
  N     -895.672     468.504    1091.102
  C     -895.462     467.211    1091.614
  O     -894.872     466.328    1090.995
  N     -896.002     467.002    1092.846
  C     -896.742     467.862    1093.589
  O     -897.262     467.553    1094.666
  C     -896.962     469.188    1092.977
  C     -896.412     469.445    1091.776
  O     -898.222     473.862    1087.976
  O     -899.382     473.074    1090.143
  H     -898.982     474.465    1088.030
  H     -894.412     468.029    1087.409
  H     -895.852     466.069    1093.253
  H     -897.542     469.907    1093.549
  H     -896.552     470.411    1091.312
  H     -894.062     468.502    1089.768
  H     -896.452     467.068    1089.115
  H     -897.672     469.044    1088.622
  H     -895.102     470.095    1087.312
  H     -895.962     472.296    1087.964
  H     -897.142     471.496    1086.875
  P     -898.662     468.412    1086.316
  C     -899.172     470.972    1085.877
  O     -898.982     469.672    1085.348
  O     -899.352     468.817    1087.714
  O     -899.052     467.075    1085.786
  H     -898.762     469.396    1088.249
  H     -899.371     471.656    1085.079
  H     -898.288     471.278    1086.397
  H     -900.000     470.964    1086.554

 6  7  8  9  10  11  12  13  14  15  16  27  31  32  33  34  35 0
 6-311+G(2d,p)
 ****
 36  37 0
 6-311+G(2d,p)
 ****
 1  2  3  4  5  17  18  19  20  21  22  23  24  25 0
 3-21G
 ****
 26  28  29  30  38  39  40  41  42  43  44  45 0
 3-21G
 ****


