%nproc=1
%NoSave
%Mem=1900MB
#P OB98/GEN NMR

erre ene a

0 1
  C      133.407    -147.642     -68.889
  O      132.285    -148.005     -69.665
  H      133.130    -146.809     -68.235
  H      134.227    -147.322     -69.539
  H      133.732    -148.483     -68.269
  P      132.440    -149.288     -70.612
  C      134.170    -148.299     -72.293
  O      133.921    -149.212     -71.236
  C      135.303    -148.822     -73.176
  O      135.541    -147.862     -74.241
  C      136.627    -149.006     -72.421
  O      137.300    -150.159     -72.929
  C      137.411    -147.752     -72.780
  O      138.819    -147.898     -72.655
  C      136.943    -147.522     -74.223
  N      137.148    -146.146     -74.667
  C      138.388    -145.826     -75.207
  O      139.297    -146.631     -75.408
  N      138.572    -144.505     -75.526
  C      137.668    -143.499     -75.344
  O      137.897    -142.327     -75.628
  C      136.382    -143.899     -74.755
  C      136.183    -145.183     -74.450
  O      131.502    -148.940     -71.867
  O      132.100    -150.600     -69.993
  H      130.594    -149.271     -71.715
  H      139.105    -148.588     -73.287
  H      139.466    -144.252     -75.923
  H      135.645    -143.122     -74.587
  H      135.250    -145.506     -74.008
  H      137.458    -148.213     -74.902
  H      137.099    -146.919     -72.139
  H      136.490    -149.102     -71.341
  H      134.985    -149.762     -73.651
  H      134.459    -147.332     -71.868
  H      133.256    -148.171     -72.886
  P      137.610    -151.349     -71.895
  C      139.915    -150.480     -71.016
  O      138.540    -150.709     -70.752
  O      138.601    -152.265     -72.749
  O      136.370    -152.033     -71.408
  H      139.207    -151.756     -73.317
  H      140.378    -150.053     -70.151
  H      140.012    -149.807     -71.842
  H      140.392    -151.408     -71.254

 6  7  8  9  10  11  12  13  14  15  16  27  31  32  33  34  35 0
 6-311+G(2d,p)
 ****
 36  37 0
 6-311+G(2d,p)
 ****
 1  2  3  4  5  17  18  19  20  21  22  23  24  25 0
 3-21G
 ****
 26  28  29  30  38  39  40  41  42  43  44  45 0
 3-21G
 ****


