%nproc=1
%NoSave
%Mem=1900MB
#P OB98/GEN NMR

erre ene a

0 1
  C      295.392     -91.095    -153.634
  O      295.018     -89.727    -153.500
  P      296.171     -88.614    -153.431
  C      295.884     -88.398    -150.882
  O      296.793     -88.627    -151.954
  C      296.608     -87.793    -149.678
  O      296.898     -86.396    -149.877
  C      295.795     -87.855    -148.395
  O      295.771     -89.175    -147.872
  C      296.517     -86.830    -147.533
  O      297.682     -87.401    -146.918
  C      296.935     -85.770    -148.574
  N      296.112     -84.570    -148.539
  C      296.784     -83.374    -148.262
  O      297.991     -83.380    -148.029
  N      296.062     -82.204    -148.243
  C      294.787     -82.231    -148.470
  N      294.123     -81.044    -148.442
  C      294.040     -83.473    -148.753
  C      294.756     -84.594    -148.764
  O      295.802     -87.266    -153.958
  O      297.348     -89.271    -154.305
  H      298.242     -87.724    -147.653
  H      297.867     -88.556    -154.723
  H      292.975     -83.442    -148.943
  H      294.287     -85.550    -148.962
  H      297.974     -85.463    -148.410
  H      295.876     -86.453    -146.729
  H      294.769     -87.519    -148.590
  H      297.556     -88.331    -149.544
  H      294.658     -80.208    -148.233
  H      295.410     -89.340    -150.597
  H      293.141     -80.954    -148.654
  H      295.083     -87.737    -151.232
  P      294.381     -89.966    -147.916
  C      293.675     -88.702    -145.766
  O      293.313     -89.133    -147.063
  O      294.668     -91.247    -146.997
  O      293.935     -90.374    -149.283
  H      294.173     -92.015    -147.339
  H      292.991     -87.903    -145.460
  H      294.698     -88.316    -145.745
  H      293.581     -89.533    -145.065
  H      294.513     -91.704    -153.665
  H      295.996     -91.383    -152.799
  H      295.948     -91.226    -154.539

 3  4  5  6  7  8  9  10  11  12  13  23  27  28  29  30  32 0
 6-311+G(2d,p)
 ****
 34  35 0
 6-311+G(2d,p)
 ****
 1  2  14  15  16  17  18  19  20  21  22  24  25  26 0
 3-21G
 ****
 31  33  36  37  38  39  40  41  42  43  44  45  46 0
 3-21G
 ****


