%nproc=1
%NoSave
%Mem=1900MB
#P OB98/GEN NMR

erre ene a

0 1
  C       74.043      81.081    -182.394
  O       73.968      82.314    -183.122
  P       73.085      82.499    -184.453
  C       74.540      82.799    -186.562
  O       73.875      81.880    -185.707
  C       74.258      82.510    -188.043
  O       75.099      81.408    -188.510
  C       72.796      82.126    -188.349
  O       72.465      82.737    -189.602
  C       72.883      80.610    -188.474
  O       71.786      80.030    -189.154
  C       74.228      80.490    -189.204
  N       74.807      79.149    -189.232
  C       74.424      78.296    -190.275
  O       73.586      78.635    -191.110
  N       74.991      77.043    -190.341
  C       75.857      76.672    -189.448
  N       76.390      75.425    -189.581
  C       76.275      77.529    -188.324
  C       75.719      78.739    -188.280
  O       72.630      83.906    -184.677
  O       71.827      81.524    -184.270
  H       71.037      81.940    -184.665
  H       71.602      80.569    -189.943
  H       77.003      77.184    -187.604
  H       75.994      79.441    -187.499
  H       74.118      80.861    -190.230
  H       72.924      80.180    -187.467
  H       72.085      82.470    -187.590
  H       74.549      83.394    -188.625
  H       76.083      74.868    -190.374
  H       75.619      82.717    -186.389
  H       77.075      75.039    -188.948
  H       74.227      83.820    -186.307
  P       71.326      83.867    -189.658
  C       69.301      82.370    -188.973
  O       70.166      83.437    -188.636
  O       70.635      83.566    -191.076
  O       71.792      85.287    -189.602
  H       70.220      84.384    -191.411
  H       69.178      81.724    -188.098
  H       69.686      81.767    -189.801
  H       68.322      82.779    -189.250
  H       74.689      81.204    -181.550
  H       74.430      80.314    -183.031
  H       73.065      80.806    -182.057

 3  4  5  6  7  8  9  10  11  12  13  24  27  28  29  30  32 0
 6-311+G(2d,p)
 ****
 34  35 0
 6-311+G(2d,p)
 ****
 1  2  14  15  16  17  18  19  20  21  22  23  25  26 0
 3-21G
 ****
 31  33  36  37  38  39  40  41  42  43  44  45  46 0
 3-21G
 ****


