%nproc=1
%NoSave
%Mem=1900MB
#P OB98/GEN NMR

erre ene a

0 1
  C      180.575    -379.099      20.768
  O      180.747    -378.101      21.757
  H      180.152    -378.661      19.861
  H      181.553    -379.527      20.530
  H      179.922    -379.895      21.141
  P      179.416    -377.368      22.272
  C      177.069    -378.176      23.032
  O      178.291    -378.507      22.390
  C      175.899    -378.815      22.293
  O      175.889    -378.392      20.915
  C      175.923    -380.341      22.254
  O      175.447    -380.907      23.465
  C      174.968    -380.609      21.102
  O      173.608    -380.483      21.558
  C      175.306    -379.467      20.133
  N      175.832    -380.527      15.156
  C      174.778    -380.100      15.879
  N      174.717    -379.820      17.196
  C      175.918    -380.000      17.772
  C      177.092    -380.414      17.161
  C      177.022    -380.689      15.788
  N      178.096    -381.194      15.068
  N      178.118    -380.503      18.085
  C      177.565    -380.171      19.231
  N      176.241    -379.853      19.091
  O      178.964    -376.518      20.990
  O      179.592    -376.503      23.474
  H      173.435    -379.528      21.666
  H      179.282    -375.599      21.086
  H      173.850    -379.968      15.325
  H      178.079    -380.148      20.182
  H      174.412    -379.062      19.645
  H      175.077    -381.613      20.680
  H      176.915    -380.718      21.990
  H      174.970    -378.453      22.755
  H      176.942    -377.088      23.037
  H      177.821    -381.770      14.278
  H      178.856    -381.538      15.641
  H      177.108    -378.535      24.065
  P      175.902    -382.406      23.815
  C      178.171    -383.572      24.253
  O      177.506    -382.435      23.714
  O      175.422    -383.231      22.527
  O      175.319    -382.975      25.066
  H      174.833    -383.959      22.805
  H      179.227    -383.463      24.121
  H      177.837    -384.454      23.747
  H      177.949    -383.654      25.297

 6  7  8  9  10  11  12  13  14  15  25  28  32  33  34  35 0
 6-311+G(2d,p)
 ****
 36  39  40 0
 6-311+G(2d,p)
 ****
 1  2  3  4  5  16  17  18  19  20  21  22  23  24 0
 3-21G
 ****
 26  27  29  30  31  37  38  41  42  43  44  45  46  47  48 0
 3-21G
 ****


