%nproc=1
%NoSave
%Mem=1900MB
#P OB98/GEN NMR

erre ene a

0 1
  C      269.559      89.816    -186.548
  O      268.981      91.037    -187.012
  P      269.160      92.326    -186.069
  C      267.641      91.437    -184.162
  O      268.937      91.877    -184.542
  C      267.130      92.174    -182.917
  O      267.839      91.734    -181.726
  C      267.281      93.694    -182.999
  O      266.177      94.275    -182.299
  C      268.550      93.954    -182.209
  O      268.612      95.309    -181.766
  C      268.411      92.903    -181.098
  N      269.679      92.592    -180.439
  C      270.026      93.365    -179.327
  O      269.310      94.308    -178.980
  N      271.189      93.084    -178.658
  C      271.971      92.144    -179.096
  N      273.115      91.912    -178.391
  C      271.678      91.341    -180.299
  C      270.525      91.615    -180.910
  O      267.865      93.209    -186.397
  O      270.418      93.088    -186.328
  H      268.523      95.892    -182.553
  H      268.126      94.128    -186.585
  H      272.370      90.582    -180.640
  H      270.222      91.079    -181.799
  H      267.710      93.243    -180.328
  H      269.434      93.749    -182.829
  H      267.312      94.075    -184.026
  H      266.072      91.916    -182.779
  H      273.277      92.480    -177.568
  H      267.657      90.362    -183.960
  H      273.794      91.213    -178.641
  H      266.957      91.575    -185.009
  P      265.056      95.044    -183.149
  C      265.962      97.448    -183.155
  O      265.843      96.240    -183.879
  O      264.268      95.840    -181.998
  O      264.121      94.239    -183.990
  H      263.500      96.303    -182.383
  H      266.618      98.124    -183.708
  H      266.401      97.261    -182.168
  H      264.982      97.921    -183.049
  H      269.372      89.040    -187.260
  H      269.124      89.550    -185.608
  H      270.615      89.944    -186.429

 3  4  5  6  7  8  9  10  11  12  13  21  23  27  28  29  30  32 0
 6-311+G(2d,p)
 ****
 34  35 0
 6-311+G(2d,p)
 ****
 1  2  14  15  16  17  18  19  20  22  24  25  26 0
 3-21G
 ****
 31  33  36  37  38  39  40  41  42  43  44  45  46 0
 3-21G
 ****


