%nproc=1
%NoSave
%Mem=1900MB
#P OB98/GEN NMR

erre ene a

0 1
  C      192.519    -180.603      90.882
  O      191.132    -180.288      90.722
  P      190.427    -179.562      91.970
  C      190.914    -177.107      91.303
  O      189.931    -178.115      91.480
  C      190.399    -175.968      90.415
  O      190.120    -176.444      89.062
  C      189.110    -175.317      90.933
  O      189.177    -173.926      90.594
  C      188.035    -175.982      90.092
  O      186.823    -175.230      90.102
  C      188.763    -176.050      88.749
  N      186.410    -176.428      84.299
  C      186.797    -175.310      85.007
  N      186.570    -174.114      84.421
  N      187.360    -175.357      86.184
  C      187.562    -176.620      86.633
  C      187.235    -177.810      86.018
  C      186.583    -177.742      84.728
  O      186.225    -178.702      84.056
  N      187.631    -178.891      86.773
  C      188.129    -178.343      87.869
  N      188.163    -176.977      87.809
  O      191.653    -179.239      92.945
  O      189.389    -180.399      92.641
  H      187.036    -174.323      89.788
  H      191.696    -179.895      93.663
  H      185.961    -176.334      83.401
  H      188.500    -178.890      88.721
  H      188.794    -175.075      88.242
  H      187.823    -176.986      90.473
  H      186.185    -174.009      83.490
  H      188.943    -175.438      92.007
  H      186.881    -173.277      84.897
  H      191.188    -175.209      90.336
  H      191.810    -177.536      90.844
  H      191.227    -176.732      92.283
  P      188.891    -172.856      91.753
  C      191.239    -172.969      92.837
  O      190.293    -172.183      92.138
  O      188.558    -173.781      93.022
  O      187.768    -171.911      91.466
  H      187.838    -173.371      93.540
  H      192.243    -172.586      92.620
  H      191.194    -174.020      92.541
  H      191.060    -172.889      93.912
  H      192.881    -181.080      89.995
  H      192.641    -181.261      91.717
  H      193.072    -179.703      91.053

 3  4  5  6  7  8  9  10  11  12  23  26  30  31 0
 6-311+G(2d,p)
 ****
 33  35  36  37  38 0
 6-311+G(2d,p)
 ****
 1  2  13  14  15  16  17  18  19  20  21  22  24  25 0
 3-21G
 ****
 27  28  29  32  34  39  40  41  42  43  44  45  46  47  48  49 0
 3-21G
 ****


