%nproc=1
%NoSave
%Mem=1900MB
#P OB98/GEN NMR

erre ene a

0 1
  C      318.253      27.780     584.441
  O      319.622      28.100     584.600
  H      317.654      28.648     584.726
  H      317.984      26.939     585.088
  H      318.041      27.528     583.399
  P      320.677      26.956     584.213
  C      321.309      28.052     581.944
  O      320.750      26.929     582.612
  C      320.631      28.235     580.587
  O      319.284      28.732     580.781
  C      321.316      29.260     579.689
  O      322.466      28.733     579.056
  C      320.191      29.596     578.722
  O      320.103      28.635     577.663
  C      318.945      29.517     579.613
  N      315.156      32.907     579.137
  C      315.297      31.639     578.683
  N      316.336      30.797     578.863
  C      317.285      31.372     579.624
  C      317.276      32.649     580.161
  C      316.145      33.437     579.887
  N      316.010      34.733     580.328
  N      318.449      32.893     580.849
  C      319.146      31.783     580.742
  N      318.482      30.832     580.012
  O      319.898      25.608     584.581
  O      321.991      27.045     584.911
  H      320.991      28.590     577.256
  H      320.208      25.276     585.445
  H      314.472      31.256     578.088
  H      320.131      31.618     581.164
  H      318.108      29.016     579.115
  H      320.349      30.575     578.270
  H      321.567      30.159     580.266
  H      320.568      27.258     580.092
  H      322.382      27.887     581.789
  H      321.173      28.943     582.566
  H      315.202      35.262     580.040
  H      316.790      35.178     580.795
  P      323.888      29.376     579.439
  C      325.067      27.059     579.624
  O      324.700      28.270     580.269
  O      323.520      30.484     580.538
  O      324.634      29.961     578.288
  H      324.110      31.256     580.437
  H      325.599      26.435     580.312
  H      325.693      27.278     578.784
  H      324.186      26.552     579.290

 6  7  8  9  10  11  12  13  14  15  25  28  32  33  34  35 0
 6-311+G(2d,p)
 ****
 36  37  40 0
 6-311+G(2d,p)
 ****
 1  2  3  4  5  16  17  18  19  20  21  22  23  24 0
 3-21G
 ****
 26  27  29  30  31  38  39 41  42  43  44  45  46  47  48 0
 3-21G
 ****


