%nproc=1
%NoSave
%Mem=1900MB
#P OB98/GEN NMR

erre ene a

0 1
  C      596.501    -708.096     495.826
  O      596.308    -709.491     495.926
  H      595.793    -707.573     496.479
  H      597.517    -707.853     496.161
  H      596.391    -707.757     494.794
  P      594.942    -710.072     495.319
  C      593.398    -710.270     497.414
  O      593.768    -709.501     496.263
  C      592.685    -709.375     498.434
  O      591.494    -708.820     497.819
  C      592.249    -710.131     499.699
  O      592.437    -709.280     500.839
  C      590.764    -710.370     499.483
  O      590.057    -710.530     500.695
  C      590.378    -709.131     498.671
  N      585.274    -709.286     498.852
  C      586.203    -708.948     499.772
  N      587.543    -708.927     499.650
  C      587.897    -709.251     498.392
  C      587.067    -709.621     497.340
  C      585.689    -709.651     497.611
  N      584.752    -710.025     496.694
  N      587.822    -709.929     496.230
  C      589.075    -709.752     496.579
  N      589.177    -709.345     497.898
  O      595.022    -711.630     495.716
  O      594.740    -709.881     493.856
  H      590.407    -711.320     501.154
  H      595.608    -712.089     495.089
  H      585.799    -708.656     500.750
  H      589.942    -709.903     495.959
  H      590.187    -708.252     499.326
  H      590.624    -711.272     498.872
  H      592.794    -711.060     499.848
  H      593.339    -708.534     498.683
  H      594.311    -710.689     497.863
  H      583.788    -710.067     496.981
  H      585.050    -710.347     495.781
  H      592.733    -711.087     497.109
  P      593.858    -709.382     501.586
  C      593.669    -711.494     503.103
  O      594.146    -710.935     501.895
  O      593.539    -708.765     503.039
  O      594.956    -708.649     500.910
  H      594.220    -708.109     503.265
  H      593.944    -712.527     503.151
  H      592.603    -711.406     503.140
  H      594.099    -710.972     503.932

 6  7  8  9  10  11  12  13  14  15  25  28  32  33  34  35 0
 6-311+G(2d,p)
 ****
 36  39  40 0
 6-311+G(2d,p)
 ****
 1  2  3  4  5  16  17  18  19  20  21  22  23  24 0
 3-21G
 ****
 26  27  29  30  31  37  38  41  42  43  44  45  46  47 0
 3-21G
 ****
 48 0
 3-21G
 ****


