%nproc=1
%NoSave
%Mem=1900MB
#P OB98/GEN NMR

erre ene a

0 1
  C      857.334     688.762     752.583
  O      856.379     689.405     751.757
  H      857.679     687.860     752.075
  H      856.889     688.484     753.538
  H      858.198     689.421     752.746
  P      855.637     690.708     752.324
  C      853.536     689.206     752.556
  O      854.064     690.456     752.122
  C      852.282     688.839     751.754
  O      851.271     689.867     751.984
  C      852.509     688.763     750.231
  O      851.580     687.796     749.712
  C      852.124     690.159     749.804
  O      851.943     690.238     748.407
  C      850.902     690.402     750.694
  N      850.541     691.814     750.775
  C      849.958     692.364     749.630
  O      849.788     691.675     748.626
  N      849.608     693.692     749.649
  C      849.880     694.417     750.689
  N      849.527     695.733     750.633
  C      850.545     693.888     751.893
  C      850.844     692.585     751.872
  O      856.128     692.015     751.808
  O      855.816     690.594     753.912
  H      851.696     691.159     748.140
  H      856.497     691.231     754.210
  H      850.774     694.537     752.731
  H      851.339     692.102     752.711
  H      850.030     689.839     750.325
  H      852.919     690.874     750.045
  H      853.533     688.486     749.967
  H      851.881     687.892     752.145
  H      849.082     696.053     749.782
  H      853.293     689.299     753.615
  H      849.703     696.393     751.376
  H      854.300     688.418     752.430
  P      851.948     686.235     749.541
  C      852.245     686.583     747.004
  O      851.662     685.796     748.032
  O      851.312     685.358     750.579
  O      853.548     686.171     749.654
  H      853.797     685.319     750.057
  H      851.975     686.181     746.050
  H      853.310     686.572     747.107
  H      851.890     687.589     747.080

 6  7  8  9  10  11  12  13  14  15  16  26  30  31  32  33  35 0
 6-311+G(2d,p)
 ****
 37  38 0
 6-311+G(2d,p)
 ****
 1  2  3  4  5  17  18  19  20  21  22  23  24  25 0
 3-21G
 ****
 27  28  29  34  36  39  40  41  42  43  44  45  46 0
 3-21G
 ****


