%nproc=1
%NoSave
%Mem=1900MB
#P OB98/GEN NMR

erre ene a

0 1
  C      152.261    -121.767    -453.487
  O      152.636    -122.515    -452.351
  H      151.216    -121.980    -453.721
  H      152.878    -122.063    -454.337
  H      152.369    -120.692    -453.305
  P      153.977    -122.073    -451.590
  C      153.231    -120.033    -450.168
  O      153.522    -121.423    -450.193
  C      153.608    -119.432    -448.812
  O      153.834    -118.000    -448.987
  C      152.533    -119.610    -447.728
  O      153.180    -119.827    -446.467
  C      151.867    -118.247    -447.685
  O      151.225    -117.992    -446.443
  C      153.065    -117.340    -447.964
  N      154.352    -112.490    -447.777
  C      155.070    -113.623    -447.444
  N      156.303    -113.440    -446.927
  N      154.614    -114.839    -447.608
  C      153.375    -114.884    -448.156
  C      152.562    -113.835    -448.520
  C      153.071    -112.495    -448.321
  O      152.475    -111.453    -448.578
  N      151.354    -114.293    -448.981
  C      151.429    -115.611    -448.872
  N      152.638    -116.013    -448.373
  O      154.468    -120.813    -452.451
  O      155.034    -123.122    -451.493
  H      150.589    -118.718    -446.275
  H      155.118    -121.101    -453.116
  H      154.741    -111.579    -447.619
  H      150.640    -116.307    -449.117
  H      153.706    -117.210    -447.080
  H      151.122    -118.169    -448.486
  H      156.732    -112.536    -446.800
  H      151.830    -120.424    -447.927
  H      156.853    -114.262    -446.714
  H      154.563    -119.868    -448.490
  H      152.160    -119.888    -450.339
  H      153.784    -119.535    -450.973
  P      152.919    -121.224    -445.715
  C      153.893    -123.004    -447.339
  O      154.064    -122.260    -446.141
  O      151.615    -121.787    -446.451
  O      152.696    -121.084    -444.245
  H      151.061    -122.278    -445.818
  H      154.736    -123.646    -447.483
  H      153.811    -122.332    -448.168
  H      153.003    -123.594    -447.268

 6  7  8  9  10  11  12  13  14  15  26  29  33  34 0
 6-311+G(2d,p)
 ****
 36  38  39  40  41 0
 6-311+G(2d,p)
 ****
 1  2  3  4  5  16  17  18  19  20  21  22  23  24  25 0
 3-21G
 ****
 27  28  30  31  32  35  37  42  43  44  45  46  47 0
 3-21G
 ****
 48  49 0
 3-21G
 ****


