%nproc=1
%NoSave
%Mem=1900MB
#P OB98/GEN NMR

erre ene a

0 1
  C      -75.028      93.555    -254.203
  O      -76.239      93.596    -254.939
  P      -77.559      93.010    -254.239
  C      -77.022      90.712    -255.401
  O      -77.374      91.418    -254.223
  C      -77.730      89.354    -255.434
  O      -77.645      88.725    -254.137
  C      -79.217      89.422    -255.755
  O      -79.448      89.626    -257.140
  C      -79.696      88.078    -255.221
  O      -79.410      87.034    -256.168
  C      -78.821      87.908    -253.963
  N      -79.520      88.244    -252.725
  C      -80.394      87.280    -252.231
  O      -80.584      86.197    -252.782
  N      -81.060      87.613    -251.081
  C      -80.991      88.809    -250.430
  O      -81.644      89.071    -249.427
  C      -80.077      89.800    -251.018
  C      -79.395      89.477    -252.118
  O      -78.643      93.283    -255.382
  O      -77.853      93.642    -252.922
  H      -78.239      93.300    -256.267
  H      -78.437      86.972    -256.226
  H      -81.683      86.920    -250.690
  H      -80.001      90.765    -250.533
  H      -78.725      90.199    -252.571
  H      -78.464      86.873    -253.887
  H      -80.774      88.060    -255.029
  H      -79.685      90.231    -255.182
  H      -77.208      88.713    -256.157
  H      -75.939      90.560    -255.417
  H      -77.304      91.311    -256.273
  P      -80.874      90.255    -257.546
  C      -82.234      88.045    -257.846
  O      -81.979      89.196    -257.075
  O      -80.835      90.108    -259.139
  O      -81.072      91.652    -257.058
  H      -80.475      89.255    -259.431
  H      -82.725      87.300    -257.215
  H      -81.310      87.616    -258.243
  H      -82.901      88.299    -258.674
  H      -74.239      93.976    -254.791
  H      -74.791      92.540    -253.963
  H      -75.140      94.118    -253.300

 3  4  5  6  7  8  9  10  11  12  13  24  28  29  30  31  32 0
 6-311+G(2d,p)
 ****
 33  34 0
 6-311+G(2d,p)
 ****
 1  2  14  15  16  17  18  19  20  21  22  23  25  26  27 0
 3-21G
 ****
 35  36  37  38  39  40  41  42  43  44  45 0
 3-21G
 ****


