%nproc=1
%NoSave
%Mem=1900MB
#P OB98/GEN NMR

erre ene a

0 1
  C     -244.268    -140.514     -65.899
  O     -243.631    -140.137     -64.693
  P     -244.337    -140.606     -63.321
  C     -245.742    -138.400     -63.261
  O     -245.732    -139.819     -63.245
  C     -246.700    -137.878     -62.190
  O     -247.985    -138.519     -62.314
  C     -246.236    -138.125     -60.761
  O     -245.299    -137.142     -60.366
  C     -247.554    -138.061     -59.999
  O     -247.940    -136.695     -59.749
  C     -248.522    -138.739     -60.979
  N     -251.046    -142.181     -58.266
  C     -250.980    -140.806     -58.120
  N     -251.735    -140.272     -57.136
  N     -250.247    -140.029     -58.873
  C     -249.537    -140.704     -59.810
  C     -249.509    -142.058     -60.040
  C     -250.361    -142.901     -59.236
  O     -250.530    -144.107     -59.386
  N     -248.649    -142.375     -61.063
  C     -248.187    -141.208     -61.465
  N     -248.710    -140.159     -60.753
  O     -243.434    -139.911     -62.198
  O     -244.452    -142.089     -63.138
  H     -248.195    -136.282     -60.592
  H     -242.789    -140.549     -61.831
  H     -251.640    -142.723     -57.665
  H     -247.493    -141.069     -62.279
  H     -249.520    -138.278     -60.956
  H     -247.491    -138.550     -59.024
  H     -252.304    -140.806     -56.503
  H     -245.805    -139.133     -60.668
  H     -251.698    -139.260     -57.010
  H     -246.843    -136.803     -62.365
  H     -246.067    -138.051     -64.246
  H     -244.723    -138.032     -63.082
  P     -244.230    -137.544     -59.239
  C     -245.111    -136.672     -56.956
  O     -245.037    -137.753     -57.872
  O     -243.413    -136.187     -59.004
  O     -243.321    -138.667     -59.627
  H     -242.474    -136.395     -58.824
  H     -246.054    -136.751     -56.402
  H     -245.080    -135.707     -57.470
  H     -244.276    -136.738     -56.255
  H     -243.705    -140.145     -66.730
  H     -245.255    -140.101     -65.925
  H     -244.326    -141.581     -65.953

 3  4  5  6  7  8  9  10  11  12  23  26  30  31 0
 6-311+G(2d,p)
 ****
 33  35  36  37  38 0
 6-311+G(2d,p)
 ****
 1  2  13  14  15  16  17  18  19  20  21  22  24  25 0
 3-21G
 ****
 27  28  29  32  34  39  40  41  42  43  44  45  46  47  48  49 0
 3-21G
 ****


