%nproc=1
%NoSave
%Mem=1900MB
#P OB98/GEN NMR

erre ene a

0 1
  C       43.882      36.698      94.015
  O       42.921      36.013      94.790
  H       44.356      37.461      94.638
  H       43.403      37.187      93.163
  H       44.647      36.002      93.664
  P       42.061      34.882      94.046
  C       40.190      36.601      93.506
  O       41.109      35.642      93.003
  C       38.912      36.570      92.676
  O       37.909      37.415      93.284
  C       39.080      37.096      91.258
  O       39.681      36.144      90.399
  C       37.636      37.394      90.889
  O       36.958      36.217      90.421
  C       37.043      37.879      92.229
  N       36.869      39.327      92.261
  C       35.559      39.780      92.139
  O       34.595      39.027      92.011
  N       35.394      41.138      92.130
  C       36.393      42.065      92.192
  O       36.183      43.268      92.106
  C       37.756      41.528      92.335
  C       37.931      40.204      92.352
  O       41.056      34.382      95.186
  O       42.858      33.762      93.465
  H       41.359      33.528      95.545
  H       36.047      36.495      90.204
  H       34.453      41.485      92.032
  H       38.572      42.238      92.393
  H       38.929      39.786      92.436
  H       36.063      37.418      92.401
  H       37.571      38.133      90.091
  H       39.644      38.036      91.266
  H       38.530      35.540      92.664
  H       40.633      37.600      93.444
  H       39.979      36.374      94.557
  P       40.716      36.661      89.288
  C       39.281      35.893      87.226
  O       39.856      36.954      87.966
  O       41.506      35.314      88.950
  O       41.569      37.795      89.744
  H       40.940      34.523      88.981
  H       38.751      36.290      86.386
  H       38.604      35.349      87.850
  H       40.054      35.238      86.882

 6  7  8  9  10  11  12  13  14  15  16  27  31  32  33  34  35 0
 6-311+G(2d,p)
 ****
 36  37 0
 6-311+G(2d,p)
 ****
 1  2  3  4  5  17  18  19  20  21  22  23  24  25 0
 3-21G
 ****
 26  28  29  30  38  39  40  41  42  43  44  45 0
 3-21G
 ****


