%nproc=1
%NoSave
%Mem=1900MB
#P OB98/GEN NMR

erre ene a

0 1
  C      131.663    -598.802    -893.410
  O      130.894    -599.950    -893.660
  P      130.013    -599.972    -895.010
  C      127.802    -599.213    -893.890
  O      128.503    -600.259    -894.560
  C      126.318    -599.576    -893.770
  O      125.698    -599.535    -895.080
  C      126.061    -600.980    -893.230
  O      126.229    -601.015    -891.840
  C      124.623    -601.204    -893.710
  O      123.684    -600.689    -892.760
  C      124.560    -600.421    -895.030
  N      124.504    -601.279    -896.190
  C      123.257    -601.892    -896.450
  O      122.316    -601.697    -895.690
  N      123.153    -602.732    -897.530
  C      124.177    -602.941    -898.290
  N      124.011    -603.787    -899.330
  C      125.506    -602.340    -898.040
  C      125.588    -601.527    -896.980
  O      130.472    -601.338    -895.710
  O      130.228    -598.785    -895.900
  H      122.787    -600.906    -893.100
  H      130.360    -601.296    -896.680
  H      126.337    -602.558    -898.700
  H      126.540    -601.035    -896.740
  H      123.673    -599.762    -895.050
  H      124.396    -602.269    -893.810
  H      126.725    -601.712    -893.740
  H      125.835    -598.824    -893.140
  H      123.098    -604.197    -899.470
  H      127.887    -598.283    -894.460
  H      124.751    -603.998    -900.000
  H      128.239    -599.069    -892.900
  P      127.444    -601.884    -891.260
  C      125.991    -604.003    -890.920
  O      126.726    -602.969    -890.300
  O      128.118    -600.889    -890.210
  O      128.429    -602.434    -892.250
  H      128.932    -601.273    -889.850
  H      125.723    -604.746    -890.160
  H      126.622    -604.498    -891.670
  H      125.107    -603.577    -891.390
  H      132.193    -598.922    -892.488
  H      131.020    -597.949    -893.343
  H      132.362    -598.660    -894.208

 3  4  5  6  7  8  9  10  11  12  13  21  23  27  28  29  30  32 0
 6-311+G(2d,p)
 ****
 34  35 0
 6-311+G(2d,p)
 ****
 1  2  14  15  16  17  18  19  20  22  24  25  26 0
 3-21G
 ****
 31  33  36  37  38  39  40  41  42  43  44  45  46 0
 3-21G
 ****


