%nproc=1
%NoSave
%Mem=1900MB
#P OB98/GEN NMR

erre ene a

0 1
  C      -56.618     217.635    -112.301
  O      -56.573     216.937    -113.526
  H      -55.857     218.418    -112.317
  H      -56.401     216.951    -111.476
  H      -57.594     218.100    -112.146
  P      -57.781     215.956    -113.900
  C      -60.054     216.265    -115.083
  O      -58.726     216.743    -114.931
  C      -60.788     217.043    -116.183
  O      -60.732     218.459    -115.875
  C      -60.116     216.857    -117.547
  O      -61.038     216.992    -118.624
  C      -59.128     218.011    -117.594
  O      -58.749     218.371    -118.922
  C      -59.901     219.102    -116.856
  N      -57.221     223.408    -117.357
  C      -57.808     222.627    -118.332
  N      -57.663     223.052    -119.610
  N      -58.456     221.520    -118.082
  C      -58.459     221.180    -116.770
  C      -57.894     221.859    -115.715
  C      -57.209     223.102    -116.002
  O      -56.652     223.820    -115.178
  N      -58.097     221.200    -114.529
  C      -58.777     220.123    -114.865
  N      -59.044     220.078    -116.211
  O      -58.672     215.929    -112.569
  O      -57.386     214.575    -114.324
  H      -58.153     219.140    -118.857
  H      -59.222     215.126    -112.544
  H      -56.759     224.266    -117.600
  H      -59.113     219.358    -114.175
  H      -60.558     219.646    -117.546
  H      -58.218     217.706    -117.070
  H      -57.012     223.782    -119.854
  H      -59.605     215.901    -117.636
  H      -57.807     222.349    -120.339
  H      -61.847     216.763    -116.198
  H      -60.553     216.398    -114.120
  H      -60.051     215.197    -115.303
  P      -61.870     215.705    -119.087
  C      -64.087     214.596    -118.159
  O      -63.337     215.752    -118.459
  O      -61.163     214.498    -118.315
  O      -61.894     215.485    -120.568
  H      -60.748     213.885    -118.949
  H      -65.033     214.881    -117.749
  H      -63.555     214.001    -117.447
  H      -64.242     214.029    -119.053

 6  7  8  9  10  11  12  13  14  15  26  29  33  34 0
 6-311+G(2d,p)
 ****
 36  38  39  40  41 0
 6-311+G(2d,p)
 ****
 1  2  3  4  5  16  17  18  19  20  21  22  23  24  25 0
 3-21G
 ****
 27  28  30  31  32  35  37  42  43  44  45  46  47 0
 3-21G
 ****
 48  49 0
 3-21G
 ****


