%nproc=1
%NoSave
%Mem=1900MB
#P OB98/GEN NMR

erre ene a

0 1
  C       41.369     -83.726     -36.146
  O       41.064     -82.906     -35.036
  H       42.442     -83.927     -36.148
  H       41.106     -83.209     -37.072
  H       40.831     -84.673     -36.080
  P       39.516     -82.561     -34.792
  C       39.129     -84.336     -32.940
  O       38.829     -83.915     -34.262
  C       37.849     -84.623     -32.159
  O       37.194     -85.790     -32.744
  C       38.070     -84.922     -30.668
  O       36.956     -84.390     -29.940
  C       37.991     -86.439     -30.611
  O       37.679     -86.924     -29.307
  C       36.908     -86.693     -31.658
  N       34.273     -90.974     -31.450
  C       33.996     -89.724     -30.933
  N       32.834     -89.590     -30.255
  N       34.785     -88.692     -31.070
  C       35.896     -88.961     -31.801
  C       36.289     -90.152     -32.361
  C       35.416     -91.294     -32.178
  O       35.618     -92.431     -32.595
  N       37.497     -90.023     -33.000
  C       37.829     -88.756     -32.828
  N       36.889     -88.072     -32.105
  O       38.953     -82.410     -36.283
  O       39.251     -81.346     -33.968
  H       37.087     -86.274     -28.878
  H       38.978     -81.476     -36.560
  H       33.637     -91.738     -31.305
  H       38.733     -88.289     -33.199
  H       35.903     -86.468     -31.281
  H       38.947     -86.880     -30.921
  H       32.156     -90.327     -30.149
  H       39.005     -84.524     -30.261
  H       32.592     -88.669     -29.905
  H       37.163     -83.779     -32.290
  H       39.686     -83.538     -32.434
  H       39.753     -85.234     -32.979
  P       37.230     -83.182     -28.923
  C       37.227     -81.163     -30.562
  O       37.989     -82.021     -29.725
  O       38.384     -83.769     -27.976
  O       36.036     -82.758     -28.137
  H       38.337     -83.350     -27.099
  H       37.875     -80.447     -31.023
  H       36.492     -80.653     -29.975
  H       36.740     -81.743     -31.318

 6  7  8  9  10  11  12  13  14  15  26  29  33  34 0
 6-311+G(2d,p)
 ****
 36  38  39  40  41 0
 6-311+G(2d,p)
 ****
 1  2  3  4  5  16  17  18  19  20  21  22  23  24  25 0
 3-21G
 ****
 27  28  30  31  32  35  37  42  43  44  45  46  47 0
 3-21G
 ****
 48  49 0
 3-21G
 ****


