%nproc=1
%NoSave
%Mem=1900MB
#P OB98/GEN NMR

erre ene a

0 1
  C      938.843    -891.420     -89.589
  O      939.798    -892.090     -90.443
  P      941.305    -892.150     -89.914
  C      940.675    -894.450     -88.851
  O      941.373    -893.210     -88.680
  C      941.135    -895.490     -87.795
  O      942.584    -895.710     -87.942
  C      940.893    -895.070     -86.332
  O      940.524    -896.240     -85.587
  C      942.275    -894.640     -85.874
  O      942.386    -894.710     -84.446
  C      943.154    -895.620     -86.634
  N      947.597    -895.370     -84.214
  C      946.444    -896.020     -83.874
  N      946.452    -896.650     -82.679
  N      945.356    -896.020     -84.601
  C      945.507    -895.370     -85.771
  C      946.597    -894.710     -86.293
  C      947.784    -894.680     -85.411
  O      948.840    -894.070     -85.664
  N      946.369    -894.150     -87.503
  C      945.106    -894.470     -87.762
  N      944.534    -895.220     -86.739
  O      941.535    -890.750     -89.182
  O      942.331    -892.370     -90.988
  H      942.118    -895.610     -84.171
  H      942.272    -890.270     -89.584
  H      948.403    -895.360     -83.624
  H      944.552    -894.190     -88.646
  H      943.134    -896.610     -86.197
  H      942.438    -893.600     -86.146
  H      947.272    -896.730     -82.084
  H      940.135    -894.310     -86.202
  H      945.608    -897.170     -82.404
  H      940.648    -896.440     -88.026
  H      940.855    -894.850     -89.845
  H      939.617    -894.270     -88.736
  P      939.013    -896.730     -85.695
  C      939.890    -899.070     -86.465
  O      939.017    -897.980     -86.720
  O      938.310    -895.560     -86.555
  O      938.320    -896.980     -84.406
  H      937.341    -895.530     -86.345
  H      940.349    -899.000     -85.492
  H      940.695    -899.050     -87.211
  H      939.325    -900.000     -86.560
  H      937.876    -891.445     -90.047
  H      939.144    -890.403     -89.446
  H      938.802    -891.916     -88.642

 3  4  5  6  7  8  9  10  11  12  23  26  30  31  33  0
 6-311+G(2d,p)
 ****
 35  36  37  38 0
 6-311+G(2d,p)
 ****
 1  2  13  14  15  16  17  18  19  20  21  22  24  25  27  28  29 0
 3-21G
 ****
 32  34  39  40  41  42  43  44  45  46  47  48  49 0
 3-21G
 ****


