%nproc=1
%NoSave
%Mem=1900MB
#P OB98/GEN NMR

erre ene a

0 1
  C       88.901     121.943     -30.267
  O       88.776     122.443     -28.928
  P       89.552     121.805     -27.675
  C       90.003     124.094     -26.577
  O       89.441     122.798     -26.418
  C       89.529     125.059     -25.485
  O       88.097     125.310     -25.625
  C       89.767     124.561     -24.048
  O       90.150     125.704     -23.277
  C       88.385     124.058     -23.656
  O       88.204     123.923     -22.259
  C       87.519     125.136     -24.314
  N       86.097     124.824     -24.413
  C       85.254     125.299     -23.400
  O       85.698     125.908     -22.428
  N       83.906     125.052     -23.501
  C       83.439     124.388     -24.510
  N       82.093     124.188     -24.552
  C       84.290     123.855     -25.585
  C       85.593     124.108     -25.476
  O       90.956     121.397     -27.984
  O       88.683     120.534     -27.235
  H       89.280     119.826     -26.928
  H       88.290     124.807     -21.858
  H       83.857     123.313     -26.413
  H       86.284     123.774     -26.245
  H       87.649     126.083     -23.779
  H       88.229     123.075     -24.109
  H       90.554     123.805     -23.970
  H       90.031     126.022     -25.642
  H       81.539     124.580     -23.798
  H       89.700     124.487     -27.552
  H       81.623     123.693     -25.295
  H       91.097     124.014     -26.566
  P       91.703     126.025     -23.047
  C       91.448     128.617     -23.119
  O       91.804     127.473     -22.369
  O       92.198     126.330     -24.543
  O       92.524     124.931     -22.447
  H       93.153     126.147     -24.607
  H       90.836     129.272     -22.493
  H       90.883     128.365     -24.017
  H       92.358     129.152     -23.409
  H       88.292     122.528     -30.924
  H       88.581     120.922     -30.298
  H       89.923     122.006     -30.577

 3  4  5  6  7  8  9  10  11  12  13  24  27  28  29  30  32 0
 6-311+G(2d,p)
 ****
 34  35 0
 6-311+G(2d,p)
 ****
 1  2  14  15  16  17  18  19  20  21  22  23  25  26 0
 3-21G
 ****
 31  33  36  37  38  39  40  41  42  43  44  45  46 0
 3-21G
 ****


