%nproc=1
%NoSave
%Mem=1900MB
#P OB98/GEN NMR

erre ene a

0 1
  C       54.750      84.033    -185.493
  O       54.942      82.870    -186.280
  P       53.635      82.150    -186.876
  C       53.796      80.471    -184.857
  O       52.996      81.328    -185.658
  C       52.937      79.348    -184.267
  O       51.700      79.896    -183.757
  C       52.518      78.275    -185.262
  O       53.581      77.371    -185.539
  C       51.328      77.653    -184.547
  O       51.772      76.729    -183.542
  C       50.678      78.886    -183.882
  N       49.519      79.396    -184.611
  C       48.315      79.415    -183.912
  O       48.202      79.035    -182.747
  N       47.226      79.872    -184.616
  C       47.211      80.240    -185.928
  O       46.202      80.601    -186.516
  C       48.507      80.167    -186.622
  C       49.581      79.756    -185.945
  O       54.314      81.037    -187.809
  O       52.713      83.093    -187.578
  H       55.198      80.786    -187.489
  H       50.966      76.353    -183.132
  H       46.344      79.920    -184.122
  H       48.535      80.443    -187.669
  H       50.542      79.682    -186.440
  H       50.363      78.642    -182.858
  H       50.661      77.107    -185.225
  H       52.183      78.742    -186.195
  H       53.483      78.901    -183.425
  H       54.247      81.050    -184.050
  H       54.598      80.050    -185.472
  P       53.438      76.486    -186.875
  C       51.953      74.626    -185.791
  O       52.066      75.669    -186.734
  O       54.581      75.388    -186.641
  O       53.590      77.272    -188.136
  H       54.603      75.057    -185.725
  H       50.895      74.449    -185.591
  H       52.450      74.880    -184.851
  H       52.395      73.717    -186.200
  H       55.699      84.403    -185.166
  H       54.148      83.792    -184.642
  H       54.258      84.782    -186.078

 3  4  5  6  7  8  9  10  11  12  13  24  28  29  30  31  32 0
 6-311+G(2d,p)
 ****
 33  34 0
 6-311+G(2d,p)
 ****
 1  2  14  15  16  17  18  19  20  21  22  23  25  26  27 0
 3-21G
 ****
 35  36  37  38  39  40  41  42  43  44  45 0
 3-21G
 ****


