%nproc=1
%NoSave
%Mem=1900MB
#P OB98/GEN NMR

erre ene a

0 1
  C      407.445    -417.223      94.967
  O      406.445    -417.213      95.970
  H      407.257    -418.064      94.293
  H      408.431    -417.347      95.419
  H      407.409    -416.294      94.390
  P      406.533    -416.035      97.053
  C      405.972    -417.561      99.091
  O      405.580    -416.477      98.268
  C      404.755    -418.154      99.816
  O      403.867    -418.744      98.822
  C      405.105    -419.270     100.816
  O      404.105    -419.261     101.853
  C      404.944    -420.515      99.967
  O      404.899    -421.673     100.759
  C      403.682    -420.132      99.196
  N      401.240    -424.237      97.344
  C      401.217    -423.646      98.562
  N      401.883    -422.546      98.974
  C      402.626    -422.037      97.978
  C      402.748    -422.517      96.685
  C      402.015    -423.677      96.372
  N      402.041    -424.284      95.141
  N      403.608    -421.723      95.946
  C      403.997    -420.779      96.774
  N      403.437    -420.931      98.017
  O      405.738    -414.834      96.356
  O      407.916    -415.638      97.455
  H      404.794    -422.476     100.202
  H      406.365    -414.239      95.903
  H      400.581    -424.120      99.300
  H      404.683    -419.974      96.540
  H      402.785    -420.189      99.829
  H      405.792    -420.634      99.284
  H      406.095    -419.152     101.266
  H      404.199    -417.343     100.298
  H      406.699    -417.194      99.826
  H      406.443    -418.334      98.480
  H      401.498    -425.122      95.005
  H      402.629    -423.891      94.413
  P      404.434    -418.534     103.254
  C      403.333    -420.385     104.748
  O      403.369    -419.022     104.348
  O      403.959    -417.033     102.970
  O      405.867    -418.565     103.674
  H      404.475    -416.412     103.515
  H      402.564    -420.522     105.480
  H      404.278    -420.658     105.168
  H      403.129    -421.001     103.897

 6  7  8  9  10  11  12  13  14  15  25  28  32  33  34  35 0
 6-311+G(2d,p)
 ****
 36  37  40 0
 6-311+G(2d,p)
 ****
 1  2  3  4  5  16  17  18  19  20  21  22  23  24 0
 3-21G
 ****
 26  27  29  30  31  38  39 41  42  43  44  45  46  47  48 0
 3-21G
 ****


