%nproc=1
%NoSave
%Mem=1900MB
#P OB98/GEN NMR

erre ene a

0 1
  C       -2.717    -249.505    -607.035
  O       -3.694    -250.231    -607.793
  P       -4.139    -249.569    -609.195
  C       -6.611    -248.864    -608.772
  O       -5.251    -248.450    -608.882
  C       -7.415    -247.860    -607.947
  O       -6.953    -247.755    -606.591
  C       -7.363    -246.440    -608.511
  O       -8.264    -246.322    -609.600
  C       -7.781    -245.609    -607.307
  O       -9.221    -245.557    -607.174
  C       -7.176    -246.401    -606.131
  N       -4.755    -244.779    -601.961
  C       -6.082    -245.114    -602.143
  N       -6.874    -245.057    -601.053
  N       -6.595    -245.509    -603.286
  C       -5.692    -245.530    -604.298
  C       -4.336    -245.234    -604.237
  C       -3.798    -244.806    -602.967
  O       -2.623    -244.512    -602.753
  N       -3.727    -245.436    -605.460
  C       -4.731    -245.735    -606.263
  N       -5.928    -245.863    -605.604
  O       -4.957    -250.738    -609.915
  O       -2.985    -249.101    -610.026
  H       -9.595    -245.105    -607.953
  H       -4.451    -251.075    -610.677
  H       -4.423    -244.472    -601.071
  H       -4.641    -245.878    -607.335
  H       -7.865    -246.449    -605.275
  H       -7.439    -244.578    -607.379
  H       -6.554    -244.769    -600.133
  H       -6.337    -246.187    -608.805
  H       -7.855    -245.317    -601.156
  H       -8.470    -248.211    -607.925
  H       -6.657    -249.856    -608.303
  H       -7.026    -248.983    -609.777
  P       -7.719    -246.687    -611.069
  C       -7.032    -244.368    -612.006
  O       -6.604    -245.597    -611.446
  O       -8.959    -246.335    -612.020
  O       -7.300    -248.110    -611.228
  H       -9.083    -247.042    -612.667
  H       -6.297    -243.591    -611.729
  H       -8.017    -244.076    -611.647
  H       -7.058    -244.450    -613.103
  H       -2.501    -250.035    -606.131
  H       -3.100    -248.535    -606.796
  H       -1.822    -249.403    -607.612

 3  4  5  6  7  8  9  10  11  12  23  26  30  31 0
 6-311+G(2d,p)
 ****
 33  35  36  37  38 0
 6-311+G(2d,p)
 ****
 1  2  13  14  15  16  17  18  19  20  21  22  24  25 0
 3-21G
 ****
 27  28  29  32  34  39  40  41  42  43  44  45  46  47  48  49 0
 3-21G
 ****


