%nproc=1
%NoSave
%Mem=1900MB
#P OB98/GEN NMR

erre ene a

0 1
  C     -395.544     -42.028      78.854
  O     -396.691     -42.309      78.044
  P     -398.058     -41.486      78.243
  C     -397.754     -39.012      77.647
  O     -398.114     -40.300      77.154
  C     -397.750     -37.922      76.565
  O     -396.942     -38.319      75.428
  C     -399.137     -37.552      76.021
  O     -399.072     -36.153      75.708
  C     -399.224     -38.387      74.756
  O     -400.216     -37.914      73.853
  C     -397.774     -38.306      74.253
  N     -397.441     -39.390      73.333
  C     -398.113     -39.410      72.109
  O     -398.987     -38.577      71.861
  N     -397.820     -40.407      71.210
  C     -396.996     -41.355      71.547
  N     -396.757     -42.330      70.626
  C     -396.327     -41.418      72.861
  C     -396.586     -40.408      73.694
  O     -398.328     -41.054      79.647
  O     -399.193     -42.499      77.733
  H     -400.298     -38.561      73.122
  H     -400.022     -42.329      78.225
  H     -395.673     -42.243      73.110
  H     -396.140     -40.361      74.679
  H     -397.600     -37.348      73.738
  H     -399.473     -39.426      75.016
  H     -399.947     -37.758      76.718
  H     -397.272     -37.034      76.995
  H     -397.255     -42.263      69.743
  H     -396.752     -39.078      78.090
  H     -396.229     -43.164      70.825
  H     -398.444     -38.733      78.453
  P     -399.987     -35.073      76.456
  C     -397.819     -34.277      77.564
  O     -399.015     -33.882      76.914
  O     -400.852     -35.629      77.543
  O     -400.867     -34.398      75.291
  H     -401.634     -33.947      75.696
  H     -397.150     -33.415      77.637
  H     -397.314     -35.072      77.004
  H     -398.043     -34.638      78.574
  H     -394.741     -42.676      78.572
  H     -395.787     -42.188      79.884
  H     -395.248     -41.010      78.712

 3  4  5  6  7  8  9  10  11  12  13  23  27  28  29  30  32 0
 6-311+G(2d,p)
 ****
 34  35 0
 6-311+G(2d,p)
 ****
 1  2  14  15  16  17  18  19  20  21  22  24  25  26 0
 3-21G
 ****
 31  33  36  37  38  39  40  41  42  43  44  45  46 0
 3-21G
 ****


