%nproc=1
%NoSave
%Mem=1900MB
#P OB98/GEN NMR

erre ene a

0 1
  C      317.407     221.809     145.083
  O      316.318     221.137     145.685
  H      317.028     222.693     144.562
  H      317.914     221.166     144.359
  H      318.116     222.135     145.851
  P      316.578     219.673     146.290
  C      315.253     218.641     144.326
  O      316.487     218.666     145.039
  C      315.494     218.625     142.813
  O      316.020     219.895     142.382
  C      316.517     217.591     142.369
  O      316.080     216.255     142.496
  C      316.936     218.119     141.000
  O      316.085     217.692     139.941
  C      316.804     219.648     141.192
  N      318.104     220.306     141.255
  C      318.397     221.165     140.197
  O      317.635     221.361     139.249
  N      319.620     221.773     140.239
  C      320.579     221.566     141.187
  O      321.674     222.108     141.151
  C      320.224     220.628     142.271
  C      319.020     220.050     142.252
  O      315.706     219.282     147.448
  O      318.141     219.678     146.642
  H      316.103     216.717     139.932
  H      318.370     218.942     147.257
  H      319.846     222.405     139.488
  H      320.963     220.439     143.040
  H      318.738     219.350     143.035
  H      316.243     220.089     140.355
  H      317.951     217.798     140.742
  H      317.395     217.686     143.010
  H      314.529     218.471     142.313
  H      314.697     219.547     144.594
  H      314.670     217.765     144.629
  P      316.776     215.199     143.471
  C      317.176     213.610     141.448
  O      317.736     214.257     142.592
  O      315.903     214.565     144.510
  O      317.842     216.131     144.249
  H      317.918     215.798     145.160
  H      317.929     213.022     140.967
  H      316.809     214.348     140.765
  H      316.370     212.976     141.755

 6  7  8  9  10  11  12  13  14  15  16  26  31  32  33  34  35 0
 6-311+G(2d,p)
 ****
 36  37 0
 6-311+G(2d,p)
 ****
 1  2  3  4  5  17  18  19  20  21  22  23  24  25 0
 3-21G
 ****
 27  28  29  30  38  39  40  41  42  43  44  45 0
 3-21G
 ****


