%nproc=1
%NoSave
%Mem=1900MB
#P OB98/GEN NMR

erre ene a

0 1
  C      879.491    -422.886     355.706
  O      879.600    -422.685     354.308
  H      880.464    -423.178     356.090
  H      878.770    -423.681     355.929
  H      879.181    -421.955     356.199
  P      878.273    -422.320     353.479
  C      879.887    -420.581     352.432
  O      878.755    -421.424     352.241
  C      880.341    -419.971     351.109
  O      880.830    -421.008     350.222
  C      879.232    -419.264     350.332
  O      878.940    -418.007     350.925
  C      879.852    -419.204     348.942
  O      880.818    -418.154     348.854
  C      880.539    -420.594     348.859
  N      879.731    -421.593     348.183
  C      879.280    -421.261     346.889
  O      879.553    -420.153     346.419
  N      878.516    -422.175     346.199
  C      878.254    -423.332     346.723
  N      877.504    -424.194     345.983
  C      878.747    -423.744     348.053
  C      879.455    -422.843     348.727
  O      877.143    -421.734     354.265
  O      877.856    -423.704     352.792
  H      880.333    -417.318     349.031
  H      877.206    -424.176     353.342
  H      878.514    -424.742     348.450
  H      879.853    -423.066     349.710
  H      881.490    -420.515     348.338
  H      879.104    -419.019     348.169
  H      878.331    -419.884     350.294
  H      881.177    -419.295     351.318
  H      877.209    -423.875     345.072
  H      880.686    -421.206     352.856
  H      877.377    -425.168     346.204
  H      879.656    -419.787     353.152
  P      877.477    -417.653     351.469
  C      878.845    -416.030     352.917
  O      877.628    -416.234     352.220
  O      876.815    -418.719     352.265
  O      876.670    -417.236     350.137
  H      876.411    -418.059     349.630
  H      878.836    -415.063     353.374
  H      879.664    -416.093     352.231
  H      878.954    -416.780     353.672

 6  7  8  9  10  11  12  13  14  15  16  26  30  31  32  33  35 0
 6-311+G(2d,p)
 ****
 37  38 0
 6-311+G(2d,p)
 ****
 1  2  3  4  5  17  18  19  20  21  22  23  24  25 0
 3-21G
 ****
 27  28  29  34  36  39  40  41  42  43  44  45  46 0
 3-21G
 ****


