%nproc=1
%NoSave
%Mem=1900MB
#P OB98/GEN NMR

erre ene a

0 1
  C      167.398     263.085     -18.086
  O      167.964     261.905     -18.623
  H      168.191     263.665     -17.607
  H      166.642     262.842     -17.335
  H      166.953     263.689     -18.881
  P      166.991     260.837     -19.315
  C      164.894     259.506     -18.589
  O      165.908     260.428     -18.206
  C      164.234     258.890     -17.357
  O      165.196     258.121     -16.607
  C      163.666     259.911     -16.379
  O      162.460     260.458     -16.874
  C      163.531     259.055     -15.130
  O      162.366     258.222     -15.200
  C      164.819     258.201     -15.211
  N      165.920     258.729     -14.409
  C      165.632     258.987     -13.064
  O      164.501     258.786     -12.622
  N      166.634     259.488     -12.265
  C      167.821     259.668     -12.749
  N      168.765     260.160     -11.905
  C      168.174     259.372     -14.150
  C      167.185     258.922     -14.919
  O      167.655     259.676     -19.989
  O      166.136     261.710     -20.351
  H      162.562     257.536     -15.870
  H      166.546     261.688     -21.236
  H      169.182     259.531     -14.509
  H      167.360     258.681     -15.963
  H      164.619     257.173     -14.878
  H      163.442     259.655     -14.225
  H      164.401     260.698     -16.182
  H      163.454     258.199     -17.703
  H      168.481     260.328     -10.945
  H      165.380     258.726     -19.187
  H      169.751     260.186     -12.122
  H      164.141     259.999     -19.214
  P      161.724     261.680     -16.138
  C      159.778     261.841     -14.469
  O      160.794     261.011     -15.012
  O      161.029     262.639     -17.041
  O      162.890     262.350     -15.268
  H      163.479     262.898     -15.847
  H      159.225     261.294     -13.734
  H      159.118     262.155     -15.251
  H      160.225     262.700     -14.013

 6  7  8  9  10  11  12  13  14  15  16  26  30  31  32  33  35 0
 6-311+G(2d,p)
 ****
 37  38 0
 6-311+G(2d,p)
 ****
 1  2  3  4  5  17  18  19  20  21  22  23  24  25 0
 3-21G
 ****
 27  28  29  34  36  39  40  41  42  43  44  45  46 0
 3-21G
 ****


