%nproc=1
%NoSave
%Mem=1900MB
#P OB98/GEN NMR

erre ene a

0 1
  C     -489.496     172.122    -156.828
  O     -489.396     171.727    -155.464
  P     -488.436     172.581    -154.510
  C     -490.285     171.940    -152.811
  O     -488.922     172.266    -153.013
  C     -490.555     171.593    -151.351
  O     -490.139     172.680    -150.499
  C     -492.012     171.332    -151.014
  O     -492.418     170.015    -151.334
  C     -491.994     171.520    -149.497
  O     -491.479     170.343    -148.871
  C     -491.016     172.683    -149.339
  N     -490.702     177.377    -147.331
  C     -489.916     176.289    -147.197
  N     -490.072     175.074    -147.751
  C     -491.194     175.025    -148.497
  C     -492.106     176.052    -148.689
  C     -491.827     177.277    -148.089
  N     -492.610     178.397    -148.253
  N     -493.129     175.621    -149.516
  C     -492.840     174.374    -149.810
  N     -491.671     173.969    -149.224
  O     -488.926     174.084    -154.752
  O     -486.972     172.417    -154.776
  H     -492.077     169.603    -149.097
  H     -488.208     174.712    -154.525
  H     -489.048     176.409    -146.559
  H     -493.437     173.735    -150.450
  H     -490.370     172.561    -148.449
  H     -492.985     171.696    -149.079
  H     -492.669     172.093    -151.467
  H     -489.940     170.708    -151.092
  H     -490.555     171.088    -153.445
  H     -492.247     179.285    -147.932
  H     -493.330     178.380    -148.966
  H     -490.906     172.801    -153.119
  P     -494.010     169.746    -151.391
  C     -493.596     168.173    -153.429
  O     -494.164     168.338    -152.144
  O     -494.516     170.815    -152.466
  O     -494.700     169.883    -150.081
  H     -495.459     171.034    -152.309
  H     -493.516     167.113    -153.647
  H     -492.598     168.618    -153.478
  H     -494.250     168.652    -154.181
  H     -490.167     171.466    -157.341
  H     -488.530     172.073    -157.285
  H     -489.866     173.125    -156.883

 3  4  5  6  7  8  9  10  11  12  22  25  29  30  31  32 0
 6-311+G(2d,p)
 ****
 33  36  37 0
 6-311+G(2d,p)
 ****
 1  2  13  14  15  16  17  18  19  20  21  23  24  26 0
 3-21G
 ****
 27  28  34  35  38  39  40  41  42  43  44  45  46  47  48 0
 3-21G
 ****


