%nproc=1
%NoSave
%Mem=1900MB
#P OB98/GEN NMR

erre ene a

0 1
  C       72.850      35.233    -133.662
  O       71.719      35.506    -134.467
  H       73.640      35.944    -133.915
  H       73.212      34.219    -133.855
  H       72.596      35.347    -132.606
  P       70.431      34.580    -134.229
  C       71.134      33.112    -136.242
  O       70.133      33.942    -135.670
  C       70.867      32.900    -137.730
  O       69.612      32.226    -137.929
  C       70.780      34.186    -138.541
  O       72.074      34.673    -138.858
  C       70.045      33.693    -139.777
  O       70.969      33.024    -140.659
  C       69.051      32.674    -139.191
  N       64.043      31.872    -139.981
  C       65.140      31.267    -140.486
  N       66.438      31.560    -140.265
  C       66.556      32.600    -139.423
  C       65.529      33.316    -138.828
  C       64.219      32.908    -139.129
  N       63.103      33.522    -138.603
  N       66.032      34.317    -138.025
  C       67.340      34.173    -138.092
  N       67.708      33.171    -138.953
  O       69.283      35.232    -133.542
  O       71.085      33.347    -133.441
  H       70.443      32.529    -141.314
  H       71.962      33.136    -133.805
  H       64.948      30.434    -141.156
  H       68.060      34.753    -137.527
  H       68.947      31.793    -139.835
  H       69.596      34.508    -140.347
  H       70.166      34.938    -138.036
  H       71.654      32.243    -138.122
  H       71.167      32.145    -135.728
  H       62.209      33.281    -139.001
  H       63.234      34.369    -138.069
  H       72.097      33.612    -136.099
  P       72.506      36.165    -138.461
  C       73.097      37.178    -140.748
  O       73.603      36.625    -139.539
  O       72.918      36.345    -137.041
  O       71.237      37.062    -138.830
  H       71.113      37.764    -138.163
  H       73.913      37.447    -141.386
  H       72.516      38.049    -140.526
  H       72.482      36.455    -141.241

 6  7  8  9  10  11  12  13  14  15  25  28  32  33  34  35 0
 6-311+G(2d,p)
 ****
 36  39  40 0
 6-311+G(2d,p)
 ****
 1  2  3  4  5  16  17  18  19  20  21  22  23  24 0
 3-21G
 ****
 26  27  29  30  31  37  38  41  42  43  44  45  46  47 0
 3-21G
 ****
 48 0
 3-21G
 ****


