%nproc=1
%NoSave
%Mem=1900MB
#P OB98/GEN NMR

erre ene a

0 1
  C      -49.550     -25.275    -125.133
  O      -48.589     -24.701    -125.994
  H      -49.595     -26.350    -125.329
  H      -50.536     -24.845    -125.326
  H      -49.276     -25.122    -124.087
  P      -48.204     -23.158    -125.799
  C      -46.400     -23.775    -124.066
  O      -47.572     -23.016    -124.333
  C      -46.614     -24.643    -122.829
  O      -47.664     -25.605    -123.077
  C      -45.394     -25.466    -122.436
  O      -44.408     -24.668    -121.810
  C      -46.034     -26.517    -121.546
  O      -46.238     -26.019    -120.219
  C      -47.386     -26.760    -122.252
  N      -47.379     -27.987    -123.048
  C      -47.788     -29.144    -122.395
  O      -48.152     -29.170    -121.222
  N      -47.706     -30.299    -123.126
  C      -47.136     -30.420    -124.360
  O      -46.860     -31.501    -124.871
  C      -46.780     -29.158    -125.024
  C      -46.903     -28.017    -124.344
  O      -49.281     -22.177    -126.124
  O      -46.932     -22.965    -126.755
  H      -47.213     -22.519    -127.576
  H      -46.882     -26.628    -119.802
  H      -47.962     -31.150    -122.644
  H      -46.392     -29.206    -126.034
  H      -46.614     -27.075    -124.799
  H      -48.197     -26.825    -121.516
  H      -45.414     -27.413    -121.474
  H      -44.977     -25.957    -123.322
  H      -46.932     -23.996    -122.003
  H      -45.567     -23.086    -123.888
  H      -46.169     -24.393    -124.940
  P      -43.120     -24.187    -122.629
  C      -43.409     -21.680    -122.144
  O      -43.380     -22.692    -123.145
  O      -42.639     -25.136    -123.676
  O      -42.000     -23.979    -121.500
  H      -41.187     -24.446    -121.774
  H      -43.588     -20.730    -122.602
  H      -42.470     -21.657    -121.632
  H      -44.191     -21.892    -121.445

 6  7  8  9  10  11  12  13  14  15  16  27  31  32  33  34  35 0
 6-311+G(2d,p)
 ****
 36  37 0
 6-311+G(2d,p)
 ****
 1  2  3  4  5  17  18  19  20  21  22  23  24  25 0
 3-21G
 ****
 26  28  29  30  38  39  40  41  42  43  44  45 0
 3-21G
 ****


