%nproc=1
%NoSave
%Mem=1900MB
#P OB98/GEN NMR

erre ene a

0 1
  C     -366.832     373.015    -317.584
  O     -367.541     371.861    -318.018
  P     -367.389     371.331    -319.526
  C     -368.850     371.507    -321.637
  O     -368.491     372.113    -320.396
  C     -369.493     372.534    -322.568
  O     -370.826     372.839    -322.080
  C     -368.722     373.852    -322.642
  O     -368.817     374.356    -323.980
  C     -369.484     374.787    -321.725
  O     -369.299     376.163    -322.108
  C     -370.915     374.263    -321.868
  N     -375.156     376.509    -320.045
  C     -374.651     376.420    -321.297
  N     -373.508     375.832    -321.705
  C     -372.887     375.242    -320.669
  C     -373.284     375.237    -319.344
  C     -374.476     375.913    -319.037
  N     -374.997     375.988    -317.762
  N     -372.372     374.550    -318.569
  C     -371.459     374.130    -319.408
  N     -371.729     374.511    -320.698
  O     -367.418     369.845    -319.676
  O     -366.012     371.954    -320.038
  H     -369.765     376.710    -321.441
  H     -365.532     371.312    -320.599
  H     -375.245     376.897    -322.072
  H     -370.584     373.557    -319.149
  H     -371.419     374.699    -322.743
  H     -369.117     374.673    -320.695
  H     -367.666     373.747    -322.356
  H     -369.598     372.085    -323.564
  H     -369.563     370.704    -321.435
  H     -375.912     376.388    -317.660
  H     -374.582     375.403    -317.043
  H     -367.955     371.067    -322.098
  P     -367.534     375.187    -324.504
  C     -366.216     377.216    -323.532
  O     -367.291     376.309    -323.384
  O     -367.713     375.657    -325.917
  O     -366.364     374.118    -324.297
  H     -366.595     373.461    -323.600
  H     -366.191     377.868    -322.656
  H     -366.358     377.830    -324.428
  H     -365.268     376.675    -323.608
  H     -367.061     373.209    -316.557
  H     -367.121     373.856    -318.179
  H     -365.780     372.848    -317.690

 3  4  5  6  7  8  9  10  11  12  22  25  29  30  31  32 0
 6-311+G(2d,p)
 ****
 33  36  37 0
 6-311+G(2d,p)
 ****
 1  2  13  14  15  16  17  18  19  20  21  23  24  26 0
 3-21G
 ****
 27  28  34  35  38  39  40  41  42  43  44  45  46  47  48 0
 3-21G
 ****


