%nproc=1
%NoSave
%Mem=1900MB
#P OB98/GEN NMR

erre ene a

0 1
  C      222.682     702.341    -301.851
  O      221.964     701.236    -302.357
  H      222.601     703.164    -302.572
  H      223.738     702.088    -301.736
  H      222.265     702.672    -300.893
  P      221.787     699.944    -301.424
  C      219.525     700.785    -300.509
  O      220.216     699.745    -301.194
  C      218.065     700.827    -300.975
  O      217.993     701.306    -302.338
  C      217.377     699.472    -300.971
  O      217.019     699.077    -299.664
  C      216.199     699.746    -301.905
  O      215.140     700.411    -301.199
  C      216.837     700.678    -302.951
  N      217.206     699.988    -304.185
  C      216.246     699.152    -304.747
  O      215.149     698.959    -304.230
  N      216.614     698.514    -305.899
  C      217.854     698.549    -306.486
  O      218.157     697.876    -307.472
  C      218.832     699.427    -305.828
  C      218.471     700.100    -304.731
  O      222.619     699.921    -300.184
  O      222.168     698.725    -302.397
  H      214.802     699.780    -300.535
  H      223.059     698.393    -302.167
  H      215.936     697.895    -306.311
  H      219.822     699.488    -306.276
  H      219.189     700.750    -304.239
  H      216.150     701.491    -303.208
  H      215.781     698.828    -302.323
  H      218.023     698.714    -301.441
  H      217.519     701.539    -300.335
  H      220.007     701.733    -300.738
  H      219.578     700.595    -299.435
  P      217.032     697.527    -299.268
  C      218.712     697.834    -297.335
  O      217.386     697.424    -297.702
  O      217.842     696.635    -300.161
  O      215.485     697.108    -299.306
  H      215.354     696.405    -299.965
  H      218.839     697.725    -296.278
  H      218.857     698.858    -297.608
  H      219.428     697.224    -297.845

 6  7  8  9  10  11  12  13  14  15  16  26  31  32  33  34  35 0
 6-311+G(2d,p)
 ****
 36  37 0
 6-311+G(2d,p)
 ****
 1  2  3  4  5  17  18  19  20  21  22  23  24  25 0
 3-21G
 ****
 27  28  29  30  38  39  40  41  42  43  44  45 0
 3-21G
 ****


