%nproc=1
%NoSave
%Mem=1900MB
#P OB98/GEN NMR

erre ene a

0 1
  C      -10.419     119.429     161.233
  O       -9.500     119.861     162.219
  H       -9.920     118.756     160.531
  H      -11.233     118.888     161.727
  H      -10.838     120.285     160.697
  P       -8.317     120.827     161.729
  C       -6.195     119.503     162.451
  O       -7.094     120.565     162.742
  C       -5.028     119.506     163.438
  O       -4.607     120.879     163.660
  C       -5.378     118.902     164.801
  O       -4.255     118.154     165.275
  C       -5.600     120.116     165.683
  O       -5.381     119.835     167.059
  C       -4.607     121.109     165.083
  N       -2.900     125.917     165.269
  C       -2.324     124.773     164.850
  N       -2.854     123.531     164.828
  C       -4.131     123.552     165.259
  C       -4.849     124.641     165.717
  C       -4.178     125.876     165.725
  N       -4.742     127.042     166.186
  N       -6.117     124.251     166.107
  C       -6.159     122.953     165.885
  N       -4.981     122.484     165.372
  O       -8.859     122.272     162.158
  O       -7.982     120.759     160.279
  H       -4.416     119.738     167.207
  H       -9.506     122.587     161.499
  H       -1.301     124.863     164.488
  H       -7.009     122.312     166.077
  H       -3.588     120.965     165.460
  H       -6.631     120.474     165.566
  H       -6.257     118.255     164.764
  H       -4.179     118.986     162.976
  H       -5.816     119.630     161.432
  H       -4.168     127.871     166.211
  H       -5.666     127.016     166.584
  H       -6.732     118.549     162.517
  P       -4.169     116.613     164.826
  C       -4.016     115.483     167.154
  O       -3.346     115.798     165.939
  O       -3.178     116.650     163.569
  O       -5.493     116.027     164.456
  H       -3.567     116.164     162.820
  H       -3.353     114.943     167.797
  H       -4.875     114.882     166.942
  H       -4.324     116.387     167.636

 6  7  8  9  10  11  12  13  14  15  25  28  32  33  34  35 0
 6-311+G(2d,p)
 ****
 36  39  40 0
 6-311+G(2d,p)
 ****
 1  2  3  4  5  16  17  18  19  20  21  22  23  24 0
 3-21G
 ****
 26  27  29  30  31  37  38  41  42  43  44  45  46  47 0
 3-21G
 ****
 48 0
 3-21G
 ****


