%nproc=1
%NoSave
%Mem=1900MB
#P OB98/GEN NMR

erre ene a

0 1
  C      620.179     899.249    -255.144
  O      618.824     899.654    -255.346
  P      617.683     898.882    -254.545
  C      617.127     900.948    -253.009
  O      617.546     899.604    -253.104
  C      616.878     901.349    -251.541
  O      615.899     900.448    -250.980
  C      618.102     901.245    -250.619
  O      617.862     902.030    -249.448
  C      618.088     899.777    -250.255
  O      618.887     899.514    -249.086
  C      616.585     899.469    -250.137
  N      616.212     898.105    -250.531
  C      616.471     897.046    -249.654
  O      616.992     897.190    -248.545
  N      616.150     895.803    -250.086
  C      615.557     895.492    -251.290
  O      615.374     894.342    -251.677
  C      615.175     896.638    -252.123
  C      615.503     897.889    -251.730
  O      618.353     897.456    -254.200
  O      616.407     898.741    -255.282
  H      618.533     900.115    -248.385
  H      617.974     896.761    -254.762
  H      616.393     895.013    -249.498
  H      614.643     896.453    -253.040
  H      615.256     898.729    -252.343
  H      616.235     899.615    -249.089
  H      618.527     899.186    -251.074
  H      619.044     901.548    -251.090
  H      616.458     902.346    -251.503
  H      616.221     901.095    -253.595
  H      617.900     901.603    -253.435
  P      618.581     903.470    -249.341
  C      616.312     904.686    -249.234
  O      617.546     904.532    -249.916
  O      619.985     903.539    -249.862
  O      618.539     903.766    -247.763
  H      619.201     904.440    -247.541
  H      615.954     905.716    -249.351
  H      616.435     904.458    -248.166
  H      615.570     903.995    -249.676
  H      620.825     899.854    -255.744
  H      620.290     898.222    -255.424
  H      620.436     899.367    -254.112

 3  4  5  6  7  8  9  10  11  12  13  23  28  29  30  31  32 0
 6-311+G(2d,p)
 ****
 33  34 0
 6-311+G(2d,p)
 ****
 1  2  14  15  16  17  18  19  20  21  22  24  25  26  27 0
 3-21G
 ****
 35  36  37  38  39  40  41  42  43  44  45 0
 3-21G
 ****


