%nproc=1
%NoSave
%Mem=1900MB
#P OB98/GEN NMR

erre ene a

0 1
  C     1080.984     543.956    1538.318
  O     1080.572     542.697    1537.800
  P     1079.495     542.705    1536.599
  C     1077.459     543.443    1538.058
  O     1078.070     542.412    1537.262
  C     1075.940     543.318    1537.966
  O     1075.492     543.592    1536.617
  C     1075.373     541.940    1538.307
  O     1075.272     541.731    1539.714
  C     1074.007     542.018    1537.681
  O     1073.093     542.742    1538.535
  C     1074.258     542.808    1536.390
  N     1071.882     540.458    1532.601
  C     1071.400     541.391    1533.521
  N     1070.096     541.725    1533.430
  N     1072.135     541.988    1534.412
  C     1073.459     541.556    1534.388
  C     1074.045     540.650    1533.547
  C     1073.193     540.004    1532.562
  O     1073.541     539.115    1531.780
  N     1075.366     540.504    1533.805
  C     1075.605     541.313    1534.816
  N     1074.448     541.969    1535.228
  O     1079.821     541.349    1535.793
  O     1079.576     543.901    1535.714
  H     1072.900     542.164    1539.299
  H     1079.446     541.382    1534.922
  H     1071.258     540.021    1531.940
  H     1076.541     541.474    1535.297
  H     1073.467     543.531    1536.172
  H     1073.547     541.023    1537.509
  H     1069.456     541.245    1532.786
  H     1075.960     541.144    1537.807
  H     1069.687     542.342    1534.095
  H     1075.489     544.067    1538.650
  H     1077.785     544.412    1537.693
  H     1077.795     543.323    1539.086
  P     1075.699     540.276    1540.256
  C     1073.292     539.590    1540.982
  O     1074.605     539.905    1541.371
  O     1077.041     540.595    1541.117
  O     1075.946     539.251    1539.191
  H     1077.613     539.797    1541.151
  H     1072.782     539.114    1541.804
  H     1073.289     538.883    1540.121
  H     1072.753     540.509    1540.698
  H     1081.694     543.803    1539.103
  H     1080.134     544.479    1538.703
  H     1081.434     544.533    1537.537

 3  4  5  6  7  8  9  10  11  12  23  26  30  31 0
 6-311+G(2d,p)
 ****
 33  35  36  37  38 0
 6-311+G(2d,p)
 ****
 1  2  13  14  15  16  17  18  19  20  21  22  24  25 0
 3-21G
 ****
 27  28  29  32  34  39  40  41  42  43  44  45  46  47  48  49 0
 3-21G
 ****


