%nproc=1
%NoSave
%Mem=1900MB
#P OB98/GEN NMR

erre ene a

0 1
  C     -133.275      14.399      -5.720
  O     -134.518      14.337      -5.041
  P     -135.777      15.180      -5.564
  C     -137.213      13.227      -6.420
  O     -136.411      14.346      -6.780
  C     -138.124      12.822      -7.578
  O     -138.637      11.493      -7.324
  C     -139.320      13.749      -7.760
  O     -139.602      13.871      -9.157
  C     -140.473      13.007      -7.105
  O     -141.735      13.402      -7.671
  C     -140.076      11.550      -7.357
  N     -143.271       7.643      -6.424
  C     -142.955       8.290      -7.566
  N     -142.118       9.336      -7.737
  C     -141.537       9.669      -6.574
  C     -141.756       9.098      -5.329
  C     -142.674       8.036      -5.276
  N     -142.986       7.369      -4.110
  N     -140.999       9.730      -4.362
  C     -140.323      10.649      -5.015
  N     -140.605      10.646      -6.356
  O     -135.495      16.609      -5.874
  O     -136.872      15.026      -4.410
  H     -142.423      12.842      -7.255
  H     -137.360      15.863      -4.292
  H     -143.443       7.921      -8.464
  H     -139.630      11.346      -4.568
  H     -140.407      11.206      -8.345
  H     -140.497      13.239      -6.035
  H     -139.162      14.740      -7.322
  H     -137.525      12.774      -8.495
  H     -137.829      13.507      -5.560
  H     -143.560       6.545      -4.189
  H     -142.416       7.546      -3.294
  H     -136.565      12.395      -6.127
  P     -140.376      15.211      -9.603
  C     -138.135      16.447      -9.129
  O     -139.533      16.405      -8.951
  O     -141.833      15.149      -9.283
  O     -140.035      15.259     -11.168
  H     -139.202      14.779     -11.370
  H     -137.738      17.305      -8.581
  H     -137.893      16.570     -10.188
  H     -137.672      15.535      -8.744
  H     -132.565      13.772      -5.222
  H     -132.920      15.408      -5.722
  H     -133.402      14.064      -6.728

 3  4  5  6  7  8  9  10  11  12  22  25  29  30  31  32 0
 6-311+G(2d,p)
 ****
 33  36  37 0
 6-311+G(2d,p)
 ****
 1  2  13  14  15  16  17  18  19  20  21  23  24  26 0
 3-21G
 ****
 27  28  34  35  38  39  40  41  42  43  44  45  46  47  48 0
 3-21G
 ****


