%nproc=1
%NoSave
%Mem=1900MB
#P OB98/GEN NMR

erre ene a

0 1
  C      241.778     617.353     462.835
  O      240.532     616.717     462.622
  H      242.551     616.789     462.303
  H      242.025     617.360     463.898
  H      241.756     618.374     462.447
  P      239.236     617.302     463.360
  C      238.993     618.906     461.345
  O      238.991     618.765     462.760
  C      237.866     619.837     460.894
  O      238.003     621.126     461.533
  C      237.841     620.116     459.397
  O      237.330     619.012     458.686
  C      236.978     621.373     459.360
  O      235.589     621.041     459.490
  C      237.481     622.126     460.608
  N      238.499     623.140     460.325
  C      238.181     624.056     459.319
  O      237.104     623.978     458.720
  N      239.108     625.024     459.000
  C      240.216     625.099     459.660
  N      241.101     626.086     459.305
  C      240.572     624.168     460.759
  C      239.687     623.218     461.025
  O      239.247     617.239     464.852
  O      238.023     616.446     462.744
  H      235.114     621.904     459.495
  H      237.824     615.683     463.313
  H      241.516     624.276     461.293
  H      239.863     622.502     461.812
  H      236.643     622.617     461.129
  H      237.100     621.932     458.422
  H      238.848     620.380     459.041
  H      236.910     619.410     461.234
  H      240.797     626.713     458.561
  H      238.836     617.897     460.920
  H      241.908     626.344     459.847
  H      239.953     619.279     460.990
  P      237.782     618.686     457.183
  C      239.736     617.149     457.851
  O      239.373     618.379     457.262
  O      237.402     619.716     456.169
  O      237.168     617.232     456.904
  H      236.196     617.309     456.716
  H      240.802     617.054     457.850
  H      239.305     616.345     457.292
  H      239.376     617.116     458.858

 6  7  8  9  10  11  12  13  14  15  16  26  30  31  32  33  35 0
 6-311+G(2d,p)
 ****
 37  38 0
 6-311+G(2d,p)
 ****
 1  2  3  4  5  17  18  19  20  21  22  23  24  25 0
 3-21G
 ****
 27  28  29  34  36  39  40  41  42  43  44  45  46 0
 3-21G
 ****


