%nproc=1
%NoSave
%Mem=1900MB
#P OB98/GEN NMR

erre ene a

0 1
  C     -145.937    -523.787    -244.058
  O     -145.692    -523.301    -242.753
  H     -146.771    -524.491    -244.016
  H     -145.057    -524.307    -244.443
  H     -146.208    -522.965    -244.727
  P     -144.482    -522.275    -242.534
  C     -141.953    -522.539    -242.084
  O     -143.139    -523.154    -242.567
  C     -140.929    -523.602    -241.687
  O     -141.493    -524.503    -240.716
  C     -140.443    -524.467    -242.846
  O     -139.427    -523.797    -243.579
  C     -139.912    -525.674    -242.090
  O     -138.634    -525.357    -241.508
  C     -140.968    -525.836    -240.980
  N     -142.337    -530.541    -242.306
  C     -141.078    -529.986    -242.185
  N     -140.037    -530.788    -242.491
  N     -140.859    -528.752    -241.810
  C     -141.996    -528.043    -241.608
  C     -143.297    -528.476    -241.714
  C     -143.525    -529.864    -242.063
  O     -144.624    -530.400    -242.158
  N     -144.186    -527.449    -241.521
  C     -143.422    -526.408    -241.248
  N     -142.080    -526.715    -241.298
  O     -144.588    -521.376    -241.340
  O     -144.412    -521.450    -243.905
  H     -138.349    -526.137    -240.996
  H     -144.948    -520.638    -243.854
  H     -142.446    -531.494    -242.607
  H     -143.784    -525.415    -241.006
  H     -140.528    -526.205    -240.046
  H     -139.769    -526.548    -242.727
  H     -140.145    -531.694    -242.924
  H     -141.270    -524.784    -243.488
  H     -139.110    -530.382    -242.462
  H     -140.088    -523.091    -241.200
  H     -142.225    -521.928    -241.217
  H     -141.524    -521.885    -242.851
  P     -138.994    -524.283    -245.049
  C     -137.340    -526.057    -245.953
  O     -137.931    -525.461    -244.810
  O     -138.527    -523.194    -245.956
  O     -140.267    -525.087    -245.589
  H     -140.943    -524.502    -246.008
  H     -136.657    -526.821    -245.644
  H     -136.813    -525.312    -246.511
  H     -138.104    -526.488    -246.566

 6  7  8  9  10  11  12  13  14  15  26  29  33  34 0
 6-311+G(2d,p)
 ****
 36  38  39  40  41 0
 6-311+G(2d,p)
 ****
 1  2  3  4  5  16  17  18  19  20  21  22  23  24  25 0
 3-21G
 ****
 27  28  30  31  32  35  37  42  43  44  45  46  47 0
 3-21G
 ****
 48  49 0
 3-21G
 ****


