%nproc=1
%NoSave
%Mem=1900MB
#P OB98/GEN NMR

erre ene a

0 1
  C      143.436     363.937      11.857
  O      144.750     364.364      11.544
  P      145.743     364.651      12.771
  C      146.160     367.217      12.887
  O      145.366     366.111      13.309
  C      145.622     367.783      11.577
  O      144.213     368.043      11.689
  C      146.255     369.107      11.170
  O      147.538     368.899      10.620
  C      145.231     369.634      10.170
  O      145.485     369.125       8.853
  C      143.898     369.079      10.730
  N      143.065     370.114      11.318
  C      142.435     370.979      10.411
  O      142.624     370.846       9.199
  N      141.650     371.990      10.903
  C      141.507     372.127      12.185
  N      140.709     373.143      12.615
  C      142.167     371.252      13.173
  C      142.930     370.280      12.677
  O      147.156     364.870      12.054
  O      145.790     363.570      13.803
  H      145.737     368.184       8.979
  H      147.890     364.648      12.657
  H      142.013     371.412      14.231
  H      143.452     369.592      13.330
  H      143.322     368.593       9.931
  H      145.256     370.725      10.101
  H      146.313     369.783      12.031
  H      145.771     367.033      10.789
  H      140.274     373.731      11.914
  H      147.190     366.883      12.732
  H      140.516     373.321      13.592
  H      146.151     367.977      13.672
  P      148.577     370.117      10.665
  C      148.734     371.278       8.387
  O      148.018     371.174       9.601
  O      149.848     369.508       9.902
  O      148.935     370.654      12.010
  H      150.592     370.132       9.953
  H      148.162     371.908       7.697
  H      148.865     370.292       7.932
  H      149.706     371.740       8.565
  H      142.886     363.783      10.952
  H      142.949     364.685      12.448
  H      143.480     363.020      12.407

 3  4  5  6  7  8  9  10  11  12  13  21  23  27  28  29  30  32 0
 6-311+G(2d,p)
 ****
 34  35 0
 6-311+G(2d,p)
 ****
 1  2  14  15  16  17  18  19  20  22  24  25  26 0
 3-21G
 ****
 31  33  36  37  38  39  40  41  42  43  44  45  46 0
 3-21G
 ****


