%nproc=1
%NoSave
%Mem=1900MB
#P OB98/GEN NMR

erre ene a

0 1
  C     -314.614      78.035     120.014
  O     -315.227      79.285     119.772
  H     -314.289      77.616     119.057
  H     -315.336      77.352     120.470
  H     -313.742      78.140     120.664
  P     -315.470      80.275     121.006
  C     -313.194      81.397     121.468
  O     -314.458      81.509     120.832
  C     -312.159      82.316     120.801
  O     -312.202      82.129     119.366
  C     -312.495      83.786     121.074
  O     -311.333      84.614     121.079
  C     -313.364      84.156     119.882
  O     -313.406      85.560     119.636
  C     -312.699      83.343     118.772
  N     -313.301      83.049     113.721
  C     -312.242      83.559     114.443
  N     -311.220      84.079     113.727
  N     -312.201      83.572     115.752
  C     -313.324      83.088     116.332
  C     -314.448      82.579     115.722
  C     -314.467      82.533     114.276
  O     -315.387      82.107     113.579
  N     -315.394      82.201     116.644
  C     -314.848      82.486     117.810
  N     -313.586      83.015     117.673
  O     -314.848      79.486     122.255
  O     -316.898      80.658     121.256
  H     -313.997      85.706     118.873
  H     -315.263      79.781     123.086
  H     -313.278      83.046     112.714
  H     -315.318      82.330     118.771
  H     -311.844      83.892     118.350
  H     -314.392      83.834     120.090
  H     -311.284      84.250     112.738
  H     -313.028      83.917     122.015
  H     -310.589      84.710     114.228
  H     -311.148      82.046     121.130
  H     -312.877      80.353     121.382
  H     -313.280      81.629     122.534
  P     -311.074      85.517     122.375
  C     -309.508      83.726     123.491
  O     -309.682      85.053     123.023
  O     -312.178      85.012     123.412
  O     -311.170      86.985     122.116
  H     -312.898      85.668     123.490
  H     -308.520      83.613     123.885
  H     -309.649      83.041     122.681
  H     -310.224      83.522     124.260

 6  7  8  9  10  11  12  13  14  15  26  29  33  34 0
 6-311+G(2d,p)
 ****
 36  38  39  40  41 0
 6-311+G(2d,p)
 ****
 1  2  3  4  5  16  17  18  19  20  21  22  23  24  25 0
 3-21G
 ****
 27  28  30  31  32  35  37  42  43  44  45  46  47 0
 3-21G
 ****
 48  49 0
 3-21G
 ****


