%nproc=1
%NoSave
%Mem=1900MB
#P OB98/GEN NMR

erre ene a

0 1
  C      -37.013     -63.375     -32.282
  O      -35.823     -62.672     -31.982
  H      -37.845     -62.666     -32.294
  H      -37.208     -64.134     -31.520
  H      -36.934     -63.842     -33.267
  P      -34.480     -63.543     -31.880
  C      -33.147     -61.354     -32.238
  O      -33.358     -62.495     -31.418
  C      -31.916     -60.582     -31.773
  O      -32.230     -59.799     -30.608
  C      -30.730     -61.459     -31.392
  O      -29.991     -61.824     -32.546
  C      -29.940     -60.508     -30.504
  O      -29.167     -59.611     -31.325
  C      -31.046     -59.727     -29.774
  N      -29.610     -59.908     -24.849
  C      -28.961     -59.490     -25.956
  N      -29.381     -59.522     -27.239
  C      -30.616     -60.042     -27.324
  C      -31.400     -60.512     -26.281
  C      -30.852     -60.426     -24.990
  N      -31.517     -60.855     -23.862
  N      -32.610     -60.980     -26.747
  C      -32.581     -60.740     -28.042
  N      -31.382     -60.207     -28.446
  O      -34.155     -64.372     -33.077
  O      -34.754     -64.370     -30.536
  H      -28.428     -60.132     -31.693
  H      -35.171     -63.802     -29.865
  H      -27.970     -59.078     -25.791
  H      -33.404     -60.913     -28.726
  H      -30.787     -58.667     -29.664
  H      -29.238     -61.029     -29.852
  H      -31.040     -62.328     -30.801
  H      -31.638     -59.879     -32.570
  H      -34.026     -60.700     -32.211
  H      -30.980     -60.934     -23.013
  H      -32.384     -61.357     -23.988
  H      -33.009     -61.706     -33.266
  P      -28.814     -62.911     -32.466
  C      -29.225     -63.031     -35.001
  O      -28.252     -63.022     -33.964
  O      -29.201     -64.195     -31.820
  O      -27.634     -62.158     -31.694
  H      -26.983     -62.808     -31.366
  H      -28.735     -63.108     -35.949
  H      -29.793     -62.125     -34.965
  H      -29.879     -63.867     -34.869

 6  7  8  9  10  11  12  13  14  15  25  28  32  33  34  35 0
 6-311+G(2d,p)
 ****
 36  39  40 0
 6-311+G(2d,p)
 ****
 1  2  3  4  5  16  17  18  19  20  21  22  23  24 0
 3-21G
 ****
 26  27  29  30  31  37  38  41  42  43  44  45  46  47 0
 3-21G
 ****
 48 0
 3-21G
 ****


