%nproc=1
%NoSave
%Mem=1900MB
#P OB98/GEN NMR

erre ene a

0 1
  C      894.281     329.373     -67.846
  O      893.043     328.971     -68.402
  P      892.767     329.365     -69.943
  C      890.489     330.550     -69.574
  O      891.857     330.691     -69.897
  C      889.776     331.903     -69.708
  O      890.164     332.784     -68.648
  C      890.103     332.644     -70.987
  O      889.404     332.095     -72.092
  C      889.673     334.061     -70.651
  O      888.284     334.280     -70.893
  C      889.988     334.143     -69.126
  N      891.132     334.981     -68.824
  C      890.967     336.339     -69.072
  O      889.925     336.773     -69.565
  N      892.027     337.181     -68.819
  C      893.137     336.711     -68.344
  N      894.154     337.579     -68.095
  C      893.362     335.249     -68.063
  C      892.299     334.461     -68.317
  O      891.757     328.234     -70.430
  O      893.992     329.437     -70.792
  H      888.037     335.082     -70.386
  H      891.819     328.083     -71.392
  H      894.298     334.914     -67.676
  H      892.375     333.398     -68.157
  H      889.114     334.535     -68.576
  H      890.236     334.819     -71.234
  H      891.184     332.625     -71.196
  H      888.689     331.724     -69.641
  H      893.984     338.546     -68.312
  H      890.378     330.212     -68.537
  H      895.052     337.304     -67.704
  H      890.027     329.796     -70.237
  P      889.957     332.386     -73.566
  C      887.690     333.547     -73.928
  O      889.094     333.625     -74.101
  O      889.332     331.162     -74.411
  O      891.427     332.480     -73.722
  H      889.703     331.165     -75.317
  H      887.242     334.500     -74.189
  H      887.449     333.313     -72.888
  H      887.276     332.780     -74.585
  H      894.336     329.051     -66.827
  H      894.362     330.439     -67.888
  H      895.082     328.932     -68.402

 3  4  5  6  7  8  9  10  11  12  13  21  23  27  28  29  30  32 0
 6-311+G(2d,p)
 ****
 34  35 0
 6-311+G(2d,p)
 ****
 1  2  14  15  16  17  18  19  20  22  24  25  26 0
 3-21G
 ****
 31  33  36  37  38  39  40  41  42  43  44  45  46 0
 3-21G
 ****


