%nproc=1
%NoSave
%Mem=1900MB
#P OB98/GEN NMR

erre ene a

0 1
  C     -276.323       7.125    -120.759
  O     -277.067       6.817    -119.595
  H     -276.523       6.386    -121.539
  H     -276.627       8.110    -121.118
  H     -275.253       7.146    -120.530
  P     -276.746       5.413    -118.890
  C     -278.558       4.348    -120.411
  O     -278.051       4.501    -119.093
  C     -279.985       4.878    -120.489
  O     -280.416       4.944    -121.862
  C     -281.025       4.022    -119.772
  O     -281.029       4.256    -118.372
  C     -282.304       4.522    -120.423
  O     -282.694       5.777    -119.832
  C     -281.856       4.746    -121.878
  N     -284.204       3.333    -126.201
  C     -284.007       4.544    -125.635
  N     -283.354       4.843    -124.492
  C     -282.857       3.731    -123.928
  C     -282.953       2.430    -124.396
  C     -283.671       2.245    -125.589
  N     -283.923       0.991    -126.124
  N     -282.328       1.550    -123.534
  C     -281.879       2.307    -122.554
  N     -282.167       3.630    -122.751
  O     -276.781       5.785    -117.329
  O     -275.450       4.787    -119.279
  H     -283.646       5.884    -120.004
  H     -275.869       5.937    -117.017
  H     -284.437       5.387    -126.167
  H     -281.349       1.941    -121.685
  H     -282.303       5.647    -122.316
  H     -283.145       3.834    -120.308
  H     -280.899       2.956    -120.004
  H     -279.988       5.903    -120.094
  H     -278.551       3.287    -120.685
  H     -284.787       0.944    -126.659
  H     -283.737       0.221    -125.492
  H     -277.912       4.897    -121.102
  P     -280.741       3.010    -117.405
  C     -283.246       3.017    -116.759
  O     -281.903       3.015    -116.296
  O     -279.441       3.477    -116.596
  O     -280.510       1.708    -118.095
  H     -278.730       2.816    -116.706
  H     -283.912       3.020    -115.922
  H     -283.421       2.142    -117.350
  H     -283.417       3.890    -117.354

 6  7  8  9  10  11  12  13  14  15  25  28  32  33  34  35 0
 6-311+G(2d,p)
 ****
 36  39  40 0
 6-311+G(2d,p)
 ****
 1  2  3  4  5  16  17  18  19  20  21  22  23  24 0
 3-21G
 ****
 26  27  29  30  31  37  38  41  42  43  44  45  46  47  48 0
 3-21G
 ****


