%nproc=1
%NoSave
%Mem=1900MB
#P OB98/GEN NMR

erre ene a

0 1
  C      392.315    -141.855    -199.234
  O      391.666    -141.184    -200.287
  H      393.255    -141.339    -199.020
  H      392.533    -142.885    -199.535
  H      391.706    -141.860    -198.325
  P      390.094    -141.418    -200.500
  C      388.955    -139.704    -198.939
  O      389.338    -140.019    -200.279
  C      388.232    -138.356    -198.867
  O      389.208    -137.286    -198.822
  C      387.342    -138.096    -200.086
  O      386.028    -138.627    -199.976
  C      387.315    -136.571    -200.136
  O      386.257    -136.038    -199.326
  C      388.680    -136.173    -199.563
  N      391.353    -132.366    -201.698
  C      390.346    -132.297    -200.741
  N      389.990    -131.054    -200.352
  N      389.750    -133.344    -200.257
  C      390.137    -134.515    -200.823
  C      391.105    -134.707    -201.779
  C      391.826    -133.542    -202.265
  O      392.725    -133.553    -203.091
  N      391.208    -136.027    -202.144
  C      390.238    -136.621    -201.465
  N      389.618    -135.759    -200.591
  O      389.665    -142.254    -199.199
  O      389.718    -142.163    -201.747
  H      385.409    -136.379    -199.676
  H      388.928    -142.850    -199.421
  H      391.797    -131.523    -202.020
  H      389.978    -137.671    -201.534
  H      388.590    -135.331    -198.861
  H      387.138    -136.219    -201.155
  H      390.359    -130.209    -200.756
  H      387.823    -138.460    -200.997
  H      389.138    -130.951    -199.805
  H      387.660    -138.307    -197.930
  H      389.873    -139.669    -198.354
  H      388.326    -140.496    -198.535
  P      385.136    -138.879    -201.278
  C      385.522    -141.460    -201.588
  O      384.647    -140.397    -201.266
  O      386.206    -138.846    -202.460
  O      384.024    -137.900    -201.502
  H      386.213    -137.964    -202.906
  H      384.995    -142.389    -201.519
  H      386.345    -141.465    -200.904
  H      385.888    -141.331    -202.585

 6  7  8  9  10  11  12  13  14  15  26  29  33  34 0
 6-311+G(2d,p)
 ****
 36  38  39  40  41 0
 6-311+G(2d,p)
 ****
 1  2  3  4  5  16  17  18  19  20  21  22  23  24  25 0
 3-21G
 ****
 27  28  30  31  32  35  37  42  43  44  45  46  47 0
 3-21G
 ****
 48  49 0
 3-21G
 ****


