%nproc=1
%NoSave
%Mem=1900MB
#P OB98/GEN NMR

erre ene a

0 1
  C     -213.698    -198.195      24.899
  O     -214.760    -197.299      25.131
  H     -213.838    -199.069      25.539
  H     -212.744    -197.731      25.158
  H     -213.690    -198.520      23.855
  P     -214.791    -195.893      24.354
  C     -215.957    -195.210      26.541
  O     -215.877    -194.997      25.136
  C     -217.170    -194.489      27.142
  O     -217.179    -193.109      26.691
  C     -218.517    -195.113      26.739
  O     -219.346    -195.260      27.896
  C     -219.128    -194.077      25.804
  O     -220.547    -194.149      25.748
  C     -218.550    -192.784      26.387
  N     -218.662    -191.665      25.465
  C     -219.947    -191.112      25.318
  O     -220.891    -191.574      25.956
  N     -220.132    -190.104      24.411
  C     -219.132    -189.701      23.682
  N     -219.389    -188.712      22.789
  C     -217.781    -190.278      23.784
  C     -217.612    -191.240      24.687
  O     -214.999    -196.003      22.881
  O     -213.406    -195.181      24.740
  H     -220.802    -195.035      25.413
  H     -213.193    -194.508      24.051
  H     -216.978    -189.913      23.148
  H     -216.645    -191.721      24.838
  H     -219.050    -192.519      27.327
  H     -218.737    -194.235      24.792
  H     -218.411    -196.086      26.257
  H     -217.054    -194.464      28.233
  H     -220.334    -188.360      22.748
  H     -215.028    -194.851      26.998
  H     -218.702    -188.338      22.146
  H     -216.060    -196.289      26.713
  P     -220.195    -196.620      27.994
  C     -222.274    -195.813      29.323
  O     -221.072    -196.564      29.340
  O     -219.083    -197.726      28.302
  O     -220.949    -196.934      26.749
  H     -218.962    -198.308      27.523
  H     -222.744    -195.870      30.283
  H     -222.933    -196.211      28.580
  H     -222.053    -194.791      29.094

 6  7  8  9  10  11  12  13  14  15  16  26  30  31  32  33  35 0
 6-311+G(2d,p)
 ****
 37  38 0
 6-311+G(2d,p)
 ****
 1  2  3  4  5  17  18  19  20  21  22  23  24  25 0
 3-21G
 ****
 27  28  29  34  36  39  40  41  42  43  44  45  46 0
 3-21G
 ****


