%nproc=1
%NoSave
%Mem=1900MB
#P OB98/GEN NMR

erre ene a

0 1
  C      -43.638    -153.788      55.842
  O      -42.888    -152.581      55.680
  P      -43.675    -151.212      55.985
  C      -42.846    -150.788      58.404
  O      -42.809    -150.373      57.048
  C      -41.563    -150.396      59.147
  O      -40.465    -151.301      58.811
  C      -41.078    -148.971      58.838
  O      -40.490    -148.461      60.041
  C      -39.987    -149.206      57.809
  O      -39.117    -148.078      57.703
  C      -39.354    -150.478      58.384
  N      -34.604    -151.768      57.263
  C      -35.086    -150.943      58.255
  N      -34.180    -150.425      59.110
  N      -36.354    -150.653      58.402
  C      -37.159    -151.272      57.500
  C      -36.797    -152.122      56.477
  C      -35.387    -152.411      56.307
  O      -34.904    -153.138      55.446
  N      -37.900    -152.584      55.790
  C      -38.911    -151.947      56.363
  N      -38.520    -151.191      57.437
  O      -44.943    -151.705      56.829
  O      -44.080    -150.465      54.756
  H      -38.774    -147.887      58.605
  H      -45.733    -151.746      56.257
  H      -33.612    -151.942      57.184
  H      -39.943    -152.020      56.056
  H      -38.723    -150.270      59.256
  H      -40.427    -149.399      56.823
  H      -33.190    -150.648      59.085
  H      -41.861    -148.296      58.480
  H      -34.512    -149.848      59.875
  H      -41.746    -150.495      60.227
  H      -42.974    -151.873      58.462
  H      -43.728    -150.355      58.888
  P      -40.555    -146.879      60.298
  C      -42.625    -146.026      61.602
  O      -41.359    -146.656      61.668
  O      -41.582    -146.377      59.172
  O      -39.245    -146.170      60.184
  H      -41.278    -145.517      58.818
  H      -43.224    -146.352      62.459
  H      -43.162    -146.286      60.683
  H      -42.501    -144.939      61.652
  H      -43.016    -154.628      55.613
  H      -44.479    -153.777      55.181
  H      -43.980    -153.862      56.853

 3  4  5  6  7  8  9  10  11  12  23  26  30  31 0
 6-311+G(2d,p)
 ****
 33  35  36  37  38 0
 6-311+G(2d,p)
 ****
 1  2  13  14  15  16  17  18  19  20  21  22  24  25 0
 3-21G
 ****
 27  28  29  32  34  39  40  41  42  43  44  45  46  47  48  49 0
 3-21G
 ****


