%nproc=1
%NoSave
%Mem=1900MB
#P OB98/GEN NMR

erre ene a

0 1
  C     -112.812      19.330    -103.150
  O     -113.621      19.277    -104.330
  P     -114.815      18.204    -104.335
  C     -115.061      15.638    -104.650
  O     -114.192      16.762    -104.658
  C     -114.449      14.494    -105.463
  O     -114.194      14.885    -106.828
  C     -113.104      14.020    -104.924
  O     -113.271      13.241    -103.752
  C     -112.567      13.253    -106.128
  O     -113.163      11.946    -106.201
  C     -113.063      14.113    -107.302
  N     -108.356      14.415    -109.300
  C     -109.094      13.361    -108.873
  N     -110.341      13.366    -108.355
  C     -110.829      14.617    -108.297
  C     -110.198      15.784    -108.695
  C     -108.899      15.653    -109.213
  N     -108.144      16.728    -109.631
  N     -111.015      16.876    -108.480
  C     -112.110      16.379    -107.943
  N     -112.051      15.014    -107.823
  O     -115.632      18.571    -105.663
  O     -115.681      18.264    -103.120
  H     -112.882      11.543    -107.045
  H     -116.485      18.985    -105.426
  H     -108.622      12.388    -108.967
  H     -112.969      16.959    -107.625
  H     -113.412      13.501    -108.145
  H     -111.481      13.118    -106.101
  H     -112.458      14.882    -104.709
  H     -115.162      13.656    -105.466
  H     -116.035      15.907    -105.068
  H     -107.192      16.556    -109.918
  H     -108.501      17.661    -109.493
  H     -115.239      15.335    -103.612
  P     -112.774      13.866    -102.361
  C     -110.443      14.614    -101.578
  O     -111.171      13.769    -102.453
  O     -113.136      12.696    -101.334
  O     -113.326      15.214    -102.040
  H     -112.866      11.821    -101.673
  H     -109.375      14.424    -101.720
  H     -110.709      14.401    -100.538
  H     -110.649      15.662    -101.810
  H     -112.057      20.079    -103.269
  H     -112.349      18.378    -102.992
  H     -113.425      19.573    -102.308

 3  4  5  6  7  8  9  10  11  12  22  25  29  30  31  32 0
 6-311+G(2d,p)
 ****
 33  36  37 0
 6-311+G(2d,p)
 ****
 1  2  13  14  15  16  17  18  19  20  21  23  24  26 0
 3-21G
 ****
 27  28  34  35  38  39  40  41  42  43  44  45  46  47  48 0
 3-21G
 ****


