%nproc=1
%NoSave
%Mem=1900MB
#P OB98/GEN NMR

erre ene a

0 1
  C      446.647     134.291     236.664
  O      445.345     133.900     237.056
  H      447.324     134.151     237.510
  H      446.653     135.346     236.381
  H      447.002     133.678     235.830
  P      444.193     133.830     235.946
  C      444.110     131.252     236.087
  O      444.302     132.386     235.253
  C      442.730     130.630     235.849
  O      442.696     130.070     234.498
  C      442.376     129.478     236.818
  O      440.951     129.486     236.979
  C      442.839     128.277     236.018
  O      442.386     127.061     236.559
  C      442.318     128.681     234.632
  N      442.833     127.900     233.515
  C      441.945     127.573     232.494
  O      440.758     127.897     232.460
  N      442.472     126.831     231.467
  C      443.767     126.405     231.361
  O      444.186     125.769     230.400
  C      444.652     126.780     232.472
  C      444.156     127.500     233.480
  O      444.133     134.979     235.000
  O      442.847     133.708     236.810
  H      442.402     134.575     236.843
  H      442.748     126.320     236.031
  H      441.843     126.585     230.716
  H      445.683     126.448     232.426
  H      444.790     127.796     234.314
  H      441.222     128.649     234.619
  H      443.929     128.223     236.026
  H      442.853     129.586     237.798
  H      441.973     131.421     235.883
  H      444.195     131.570     237.132
  H      444.897     130.515     235.877
  P      440.167     130.539     237.899
  C      439.404     132.284     236.142
  O      440.290     131.991     237.219
  O      440.583     130.515     239.336
  O      438.614     130.178     237.744
  H      438.128     130.457     238.543
  H      439.592     133.275     235.785
  H      438.392     132.214     236.483
  H      439.563     131.583     235.349

 6  7  8  9  10  11  12  13  14  15  16  27  31  32  33  34  35 0
 6-311+G(2d,p)
 ****
 36  37 0
 6-311+G(2d,p)
 ****
 1  2  3  4  5  17  18  19  20  21  22  23  24  25 0
 3-21G
 ****
 26  28  29  30  38  39  40  41  42  43  44  45 0
 3-21G
 ****


