%nproc=1
%NoSave
%Mem=1900MB
#P OB98/GEN NMR

erre ene a

0 1
  C      128.683     -58.499    -230.126
  O      127.953     -57.374    -230.578
  H      129.718     -58.413    -230.475
  H      128.249     -59.416    -230.539
  H      128.679     -58.547    -229.033
  P      126.478     -57.195    -229.979
  C      125.146     -57.523    -232.218
  O      125.474     -58.024    -230.926
  C      123.630     -57.496    -232.404
  O      123.099     -58.834    -232.453
  C      122.873     -56.848    -231.256
  O      123.019     -55.443    -231.229
  C      121.453     -57.308    -231.562
  O      120.812     -56.451    -232.513
  C      121.683     -58.717    -232.156
  N      121.214     -59.763    -231.268
  C      119.824     -59.931    -231.216
  O      119.087     -59.228    -231.917
  N      119.303     -60.860    -230.355
  C      120.096     -61.546    -229.587
  N      119.514     -62.423    -228.731
  C      121.567     -61.400    -229.607
  C      122.055     -60.500    -230.464
  O      126.144     -55.672    -230.336
  O      126.346     -57.524    -228.531
  H      120.650     -55.600    -232.054
  H      126.324     -55.438    -231.265
  H      122.183     -62.001    -228.956
  H      123.122     -60.329    -230.544
  H      121.156     -58.819    -233.117
  H      120.828     -57.306    -230.659
  H      123.180     -57.297    -230.299
  H      123.409     -57.001    -233.360
  H      118.500     -62.452    -228.709
  H      125.613     -58.135    -232.999
  H      120.022     -62.952    -228.034
  H      125.558     -56.513    -232.298
  P      122.909     -54.618    -229.859
  C      120.609     -53.470    -230.059
  O      121.341     -54.549    -229.495
  O      123.598     -53.302    -229.850
  O      123.456     -55.656    -228.767
  H      122.956     -56.487    -228.704
  H      119.587     -53.531    -229.748
  H      120.660     -53.524    -231.126
  H      121.028     -52.543    -229.728

 6  7  8  9  10  11  12  13  14  15  16  26  30  31  32  33  35 0
 6-311+G(2d,p)
 ****
 37  38 0
 6-311+G(2d,p)
 ****
 1  2  3  4  5  17  18  19  20  21  22  23  24  25 0
 3-21G
 ****
 27  28  29  34  36  39  40  41  42  43  44  45  46 0
 3-21G
 ****


