%nproc=1
%NoSave
%Mem=1900MB
#P OB98/GEN NMR

erre ene a

0 1
  C      105.757      11.884      20.127
  O      107.085      11.958      19.601
  P      107.404      13.140      18.565
  C      107.573      11.674      16.420
  O      108.238      12.532      17.340
  C      107.719      12.214      14.996
  O      107.148      13.531      14.877
  C      109.166      12.367      14.560
  O      109.713      11.113      14.200
  C      109.046      13.343      13.396
  O      108.853      12.659      12.146
  C      107.796      14.173      13.765
  N      108.112      15.559      14.066
  C      107.068      16.475      13.896
  O      105.968      16.095      13.492
  N      107.307      17.799      14.165
  C      108.489      18.176      14.542
  N      108.667      19.502      14.789
  C      109.623      17.245      14.707
  C      109.367      15.964      14.452
  O      108.485      14.027      19.343
  O      106.207      13.945      18.179
  H      109.612      12.045      12.063
  H      108.386      14.966      19.105
  H      110.592      17.608      15.017
  H      110.142      15.210      14.546
  H      107.075      14.164      12.937
  H      109.951      13.948      13.287
  H      109.754      12.823      15.366
  H      107.191      11.537      14.311
  H      107.868      20.112      14.663
  H      106.516      11.590      16.680
  H      109.545      19.905      15.080
  H      107.998      10.669      16.504
  P      110.542      10.315      15.312
  C      112.686      10.458      13.907
  O      111.735       9.602      14.510
  O      109.574       9.076      15.628
  O      110.921      11.056      16.549
  H      109.927       8.556      16.370
  H      113.540       9.859      13.583
  H      113.035      11.209      14.620
  H      112.246      10.945      13.034
  H      105.686      11.055      20.800
  H      105.062      11.753      19.324
  H      105.530      12.789      20.651

 3  4  5  6  7  8  9  10  11  12  13  21  23  27  28  29  30  32 0
 6-311+G(2d,p)
 ****
 34  35 0
 6-311+G(2d,p)
 ****
 1  2  14  15  16  17  18  19  20  22  24  25  26 0
 3-21G
 ****
 31  33  36  37  38  39  40  41  42  43  44  45  46 0
 3-21G
 ****


