%nproc=1
%NoSave
%Mem=1900MB
#P OB98/GEN NMR

erre ene a

0 1
  C     -505.782     621.959    -403.720
  O     -506.624     621.146    -404.523
  P     -508.024     621.713    -405.078
  C     -507.701     620.650    -407.410
  O     -508.484     620.656    -406.215
  C     -508.169     619.524    -408.348
  O     -507.971     618.238    -407.724
  C     -509.659     619.588    -408.724
  O     -509.875     620.577    -409.728
  C     -509.888     618.154    -409.202
  O     -509.466     617.988    -410.568
  C     -508.985     617.330    -408.233
  N     -509.751     616.713    -407.173
  C     -510.565     615.628    -407.545
  O     -510.623     615.274    -408.713
  N     -511.307     614.998    -406.582
  C     -511.288     615.405    -405.367
  N     -512.070     614.760    -404.443
  C     -510.472     616.579    -404.918
  C     -509.731     617.168    -405.855
  O     -508.011     623.144    -405.496
  O     -509.048     621.397    -403.874
  H     -509.868     618.749    -411.048
  H     -508.902     622.030    -403.139
  H     -510.465     616.901    -403.883
  H     -509.107     618.023    -405.643
  H     -508.450     616.547    -408.785
  H     -510.949     617.881    -409.138
  H     -510.236     619.771    -407.835
  H     -507.541     619.543    -409.260
  H     -512.619     613.998    -404.796
  H     -506.638     620.484    -407.158
  H     -512.136     615.014    -403.480
  H     -507.781     621.627    -407.900
  P     -511.309     621.253    -409.864
  C     -510.899     623.727    -410.467
  O     -511.197     622.431    -410.963
  O     -512.004     621.623    -408.592
  O     -512.172     620.123    -410.650
  H     -513.039     620.037    -410.210
  H     -510.562     624.351    -411.292
  H     -510.167     623.687    -409.681
  H     -511.829     624.162    -410.074
  H     -504.905     621.408    -403.452
  H     -506.306     622.249    -402.833
  H     -505.500     622.833    -404.270

 3  4  5  6  7  8  9  10  11  12  13  23  27  28  29  30  32 0
 6-311+G(2d,p)
 ****
 34  35 0
 6-311+G(2d,p)
 ****
 1  2  14  15  16  17  18  19  20  21  22  24  25  26 0
 3-21G
 ****
 31  33  36  37  38  39  40  41  42  43  44  45  46 0
 3-21G
 ****


