%nproc=1
%NoSave
%Mem=1900MB
#P OB98/GEN NMR

erre ene a

0 1
  C      284.814     -32.845     -26.756
  O      285.704     -33.010     -27.875
  P      287.181     -32.372     -27.799
  C      288.386     -30.241     -28.725
  O      287.163     -30.859     -28.347
  C      288.356     -28.727     -28.450
  O      287.397     -28.066     -29.345
  C      287.963     -28.346     -27.014
  O      288.671     -27.147     -26.679
  C      286.476     -28.049     -27.152
  O      285.961     -27.265     -26.085
  C      286.460     -27.353     -28.508
  N      285.139     -27.297     -29.148
  C      284.103     -26.658     -28.460
  O      284.218     -26.179     -27.332
  N      282.908     -26.607     -29.128
  C      282.629     -27.146     -30.348
  O      281.532     -27.092     -30.872
  C      283.754     -27.839     -31.006
  C      284.934     -27.878     -30.387
  O      287.946     -33.147     -28.975
  O      287.902     -32.565     -26.499
  H      285.075     -26.964     -26.348
  H      288.818     -33.445     -28.659
  H      282.151     -26.125     -28.660
  H      283.573     -28.285     -31.983
  H      285.781     -28.376     -30.861
  H      286.850     -26.332     -28.401
  H      285.921     -29.001     -27.166
  H      288.179     -29.139     -26.283
  H      289.347     -28.319     -28.692
  H      288.556     -30.402     -29.797
  H      289.210     -30.712     -28.180
  P      289.441     -27.087     -25.259
  C      288.761     -26.322     -22.848
  O      288.459     -26.353     -24.220
  O      290.540     -25.962     -25.580
  O      290.020     -28.384     -24.820
  H      290.176     -25.194     -26.045
  H      289.828     -26.141     -22.671
  H      288.460     -27.274     -22.383
  H      288.191     -25.507     -22.379
  H      283.882     -33.325     -26.968
  H      284.647     -31.802     -26.584
  H      285.252     -33.285     -25.884

 3  4  5  6  7  8  9  10  11  12  13  23  28  29  30  31  32 0
 6-311+G(2d,p)
 ****
 33  34 0
 6-311+G(2d,p)
 ****
 1  2  14  15  16  17  18  19  20  21  22  24  25  26 0
 3-21G
 ****
 27  35  36  37  38  39  40  41  42  43  44  45 0
 3-21G
 ****


