%nproc=1
%NoSave
%Mem=1900MB
#P OB98/GEN NMR

erre ene a

0 1
  C      -43.456      94.378    -154.118
  O      -43.332      94.544    -155.535
  P      -42.029      93.917    -156.232
  C      -42.489      91.427    -156.789
  O      -42.502      92.771    -157.255
  C      -43.320      90.510    -157.697
  O      -44.590      91.135    -158.042
  C      -42.624      90.160    -159.018
  O      -43.019      88.828    -159.380
  C      -43.245      91.136    -160.001
  O      -43.081      90.699    -161.349
  C      -44.683      91.164    -159.483
  N      -48.396      92.853    -162.556
  C      -47.905      91.619    -162.326
  N      -46.895      91.253    -161.505
  C      -46.411      92.323    -160.851
  C      -46.804      93.648    -160.989
  C      -47.850      93.903    -161.894
  N      -48.334      95.167    -162.146
  N      -46.034      94.467    -160.180
  C      -45.191      93.652    -159.577
  N      -45.402      92.347    -159.925
  O      -41.339      93.100    -155.041
  O      -41.098      94.939    -156.806
  H      -42.122      90.551    -161.507
  H      -40.529      93.563    -154.747
  H      -48.382      90.814    -162.881
  H      -44.415      93.952    -158.887
  H      -45.263      90.294    -159.807
  H      -42.772      92.119    -159.901
  H      -41.532      90.231    -158.993
  H      -43.545      89.590    -157.143
  H      -42.886      91.379    -155.769
  H      -49.065      95.267    -162.834
  H      -47.900      95.960    -161.693
  H      -41.448      91.085    -156.721
  P      -42.689      87.672    -158.321
  C      -44.907      87.839    -156.973
  O      -44.101      87.074    -157.856
  O      -42.172      88.475    -157.032
  O      -41.686      86.673    -158.797
  H      -41.584      87.909    -156.496
  H      -45.952      87.753    -157.284
  H      -44.626      88.900    -156.976
  H      -44.803      87.442    -155.962
  H      -44.362      94.839    -153.783
  H      -42.621      94.837    -153.631
  H      -43.478      93.335    -153.882

 3  4  5  6  7  8  9  10  11  12  22  25  29  30  31  32 0
 6-311+G(2d,p)
 ****
 33  36  37 0
 6-311+G(2d,p)
 ****
 1  2  13  14  15  16  17  18  19  20  21  23  24  26 0
 3-21G
 ****
 27  28  34  35  38  39  40  41  42  43  44  45  46  47  48 0
 3-21G
 ****


