%nproc=1
%NoSave
%Mem=1900MB
#P OB98/GEN NMR

erre ene a

0 1
  C      219.663    -134.073    -605.530
  O      218.426    -134.505    -605.003
  H      220.063    -133.252    -604.927
  H      220.371    -134.906    -605.503
  H      219.540    -133.746    -606.565
  P      217.252    -133.413    -604.917
  C      217.210    -133.255    -602.325
  O      216.510    -133.630    -603.507
  C      217.064    -134.345    -601.260
  O      218.031    -135.391    -601.544
  C      217.292    -133.865    -599.820
  O      216.136    -134.135    -599.019
  C      218.439    -134.724    -599.310
  O      218.263    -135.152    -597.956
  C      218.460    -135.899    -600.276
  N      221.629    -139.314    -598.200
  C      220.281    -139.206    -598.161
  N      219.488    -138.338    -598.824
  C      220.222    -137.531    -599.612
  C      221.600    -137.535    -599.772
  C      222.319    -138.468    -599.001
  N      223.696    -138.537    -599.001
  N      221.994    -136.551    -600.659
  C      220.877    -135.937    -600.998
  N      219.785    -136.479    -600.377
  O      216.183    -133.935    -605.989
  O      217.674    -132.009    -605.198
  H      219.002    -135.757    -597.760
  H      215.905    -133.195    -606.562
  H      219.771    -139.907    -597.507
  H      220.806    -135.068    -601.647
  H      217.759    -136.695    -599.974
  H      219.368    -134.145    -599.368
  H      217.540    -132.798    -599.755
  H      216.067    -134.791    -601.365
  H      216.795    -132.321    -601.934
  H      224.127    -139.158    -598.332
  H      224.218    -137.843    -599.510
  H      218.266    -133.091    -602.575
  P      215.754    -133.041    -597.902
  C      215.460    -134.661    -595.879
  O      214.834    -133.776    -596.804
  O      214.719    -132.088    -598.665
  O      216.928    -132.289    -597.372
  H      214.736    -131.192    -598.280
  H      214.722    -135.068    -595.219
  H      216.190    -134.124    -595.310
  H      215.938    -135.456    -596.413

 6  7  8  9  10  11  12  13  14  15  25  28  32  33  34  35 0
 6-311+G(2d,p)
 ****
 36  39  40 0
 6-311+G(2d,p)
 ****
 1  2  3  4  5  16  17  18  19  20  21  22  23  24 0
 3-21G
 ****
 26  27  29  30  31  37  38  41  42  43  44  45  46  47  48 0
 3-21G
 ****


