%nproc=1
%NoSave
%Mem=1900MB
#P OB98/GEN NMR

erre ene a

0 1
  C       87.707     -85.270      -3.319
  O       87.114     -86.048      -4.339
  H       88.127     -85.944      -2.567
  H       86.961     -84.632      -2.841
  H       88.516     -84.658      -3.728
  P       86.363     -85.300      -5.539
  C       86.017     -86.059      -7.983
  O       85.961     -86.428      -6.609
  C       85.657     -87.258      -8.867
  O       86.670     -88.275      -8.664
  C       84.289     -87.861      -8.511
  O       83.422     -87.983      -9.637
  C       84.654     -89.135      -7.759
  O       83.675     -90.153      -7.814
  C       86.009     -89.519      -8.363
  N       86.837     -90.342      -7.484
  C       86.495     -91.686      -7.361
  O       85.568     -92.239      -7.949
  N       87.284     -92.421      -6.513
  C       88.343     -91.956      -5.794
  O       89.017     -92.665      -5.055
  C       88.642     -90.524      -5.949
  C       87.886     -89.794      -6.774
  O       87.075     -84.122      -6.114
  O       84.949     -84.882      -4.911
  H       83.530     -90.377      -8.756
  H       84.959     -83.932      -4.689
  H       87.052     -93.398      -6.424
  H       89.471     -90.118      -5.386
  H       88.079     -88.734      -6.914
  H       85.871     -90.065      -9.297
  H       84.793     -88.881      -6.701
  H       83.734     -87.198      -7.838
  H       85.703     -86.949      -9.917
  H       87.035     -85.719      -8.199
  H       85.319     -85.236      -8.171
  P       82.252     -86.959      -9.998
  C       81.324     -86.025     -12.266
  O       81.935     -87.096     -11.561
  O       82.415     -85.578      -9.459
  O       80.956     -87.610      -9.289
  H       80.386     -86.865      -9.014
  H       81.193     -86.302     -13.291
  H       81.948     -85.158     -12.207
  H       80.371     -85.809     -11.830

 6  7  8  9  10  11  12  13  14  15  16  26  31  32  33  34  35 0
 6-311+G(2d,p)
 ****
 36  37 0
 6-311+G(2d,p)
 ****
 1  2  3  4  5  17  18  19  20  21  22  23  24  25 0
 3-21G
 ****
 27  28  29  30  38  39  40  41  42  43  44  45 0
 3-21G
 ****


