%nproc=1
%NoSave
%Mem=1900MB
#P OB98/GEN NMR

erre ene a

0 1
  C      240.397    -572.842     -16.456
  O      241.216    -572.723     -17.627
  P      242.742    -573.236     -17.571
  C      243.479    -570.724     -17.450
  O      243.706    -572.017     -17.983
  C      244.637    -569.786     -17.796
  O      245.893    -570.329     -17.311
  C      244.855    -569.582     -19.287
  O      243.900    -568.682     -19.846
  C      246.278    -569.041     -19.321
  O      246.298    -567.623     -19.047
  C      246.937    -569.825     -18.163
  N      247.798    -570.904     -18.645
  C      248.363    -571.726     -17.667
  O      248.228    -571.535     -16.458
  N      249.140    -572.759     -18.137
  C      249.449    -573.004     -19.446
  O      250.159    -573.939     -19.797
  C      248.877    -572.053     -20.428
  C      248.099    -571.074     -19.979
  O      242.819    -574.174     -18.881
  O      243.131    -573.993     -16.353
  H      246.013    -567.508     -18.127
  H      243.497    -574.865     -18.737
  H      249.535    -573.381     -17.447
  H      249.116    -572.206     -21.464
  H      247.674    -570.361     -20.690
  H      247.542    -569.146     -17.541
  H      246.764    -569.190     -20.291
  H      244.823    -570.551     -19.804
  H      244.464    -568.821     -17.296
  H      243.387    -570.798     -16.358
  H      242.535    -570.333     -17.849
  P      242.554    -569.339     -20.428
  C      243.408    -569.409     -22.905
  O      242.491    -568.878     -21.956
  O      241.440    -568.458     -19.686
  O      242.448    -570.805     -20.174
  H      241.735    -567.535     -19.543
  H      243.670    -570.441     -22.668
  H      244.311    -568.783     -22.916
  H      242.941    -569.375     -23.893
  H      239.420    -572.457     -16.663
  H      240.837    -572.285     -15.655
  H      240.323    -573.872     -16.176

 3  4  5  6  7  8  9  10  11  12  13  23  28  29  30  31  32 0
 6-311+G(2d,p)
 ****
 33  34 0
 6-311+G(2d,p)
 ****
 1  2  14  15  16  17  18  19  20  21  22  24  25  26 0
 3-21G
 ****
 27  35  36  37  38  39  40  41  42  43  44  45 0
 3-21G
 ****


