%nproc=1
%NoSave
%Mem=1900MB
#P OB98/GEN NMR

erre ene a

0 1
  C       21.426      23.488       5.494
  O       21.753      22.477       6.423
  H       20.767      23.064       4.732
  H       22.332      23.858       5.008
  H       20.907      24.311       5.992
  P       22.700      22.891       7.653
  C       21.378      21.258       9.189
  O       22.641      21.637       8.659
  C       21.552      20.189      10.271
  O       21.832      18.916       9.640
  C       22.693      20.490      11.242
  O       22.270      20.196      12.574
  C       23.806      19.552      10.811
  O       24.694      19.238      11.882
  C       23.020      18.367      10.239
  N       23.806      17.613       9.265
  C       24.916      16.918       9.753
  O       25.200      16.969      10.951
  N       25.707      16.228       8.871
  C       25.450      16.278       7.602
  N       26.284      15.591       6.776
  C       24.318      17.037       7.036
  C       23.543      17.670       7.915
  O       21.845      24.015       8.401
  O       24.077      23.324       7.278
  H       25.410      18.669      11.524
  H       22.394      24.511       9.055
  H       24.154      17.062       5.970
  H       22.690      18.255       7.590
  H       22.709      17.685      11.042
  H       24.394      20.028      10.017
  H       23.024      21.527      11.200
  H       20.599      20.073      10.799
  H       27.056      15.091       7.198
  H       20.758      20.864       8.379
  H       26.196      15.584       5.770
  H       20.890      22.138       9.620
  P       22.346      21.412      13.620
  C       20.040      21.104      14.764
  O       21.450      21.011      14.892
  O       21.505      22.570      12.907
  O       23.740      21.836      13.944
  H       22.103      23.207      12.473
  H       19.578      20.808      15.683
  H       19.710      20.460      13.975
  H       19.768      22.114      14.537

 6  7  8  9  10  11  12  13  14  15  16  26  30  31  32  33  35 0
 6-311+G(2d,p)
 ****
 37  38 0
 6-311+G(2d,p)
 ****
 1  2  3  4  5  17  18  19  20  21  22  23  24  25 0
 3-21G
 ****
 27  28  29  34  36  39  40  41  42  43  44  45  46 0
 3-21G
 ****


