%nproc=1
%NoSave
%Mem=1900MB
#P OB98/GEN NMR

erre ene a

0 1
  C        7.936    -208.604       8.400
  O        9.170    -208.667       9.107
  P        9.438    -209.807      10.204
  C       11.710    -210.662       9.340
  O       10.306    -210.923       9.451
  C       12.147    -210.790       7.881
  O       11.499    -209.741       7.113
  C       13.649    -210.604       7.621
  O       14.432    -211.776       7.816
  C       13.631    -210.248       6.137
  O       13.465    -211.445       5.349
  C       12.387    -209.371       6.030
  N       13.125    -205.042       3.381
  C       12.798    -206.306       2.992
  N       12.633    -207.403       3.760
  C       12.803    -207.102       5.054
  C       13.142    -205.870       5.600
  C       13.304    -204.805       4.697
  N       13.615    -203.518       5.099
  N       13.252    -205.963       6.985
  C       12.975    -207.217       7.255
  N       12.695    -207.946       6.129
  O        8.209    -210.297      10.901
  O       10.501    -209.144      11.206
  H       12.564    -211.784       5.539
  H       10.525    -209.647      12.045
  H       12.652    -206.444       1.920
  H       12.966    -207.646       8.247
  H       11.838    -209.527       5.089
  H       14.563    -209.775       5.803
  H       14.050    -209.756       8.191
  H       11.801    -211.760       7.497
  H       12.242    -211.402       9.948
  H       13.578    -202.796       4.401
  H       13.581    -203.309       6.087
  H       11.934    -209.663       9.737
  P       15.487    -211.753       9.024
  C       14.818    -213.900      10.375
  O       14.768    -212.487      10.253
  O       16.068    -210.404       9.325
  O       16.585    -212.827       8.542
  H       16.278    -213.744       8.511
  H       14.414    -214.178      11.353
  H       15.860    -214.264      10.309
  H       14.214    -214.362       9.590
  H        7.957    -207.779       7.719
  H        7.133    -208.473       9.095
  H        7.791    -209.513       7.854

 3  4  5  6  7  8  9  10  11  12  22  25  29  30  31  32 0
 6-311+G(2d,p)
 ****
 33  36  37 0
 6-311+G(2d,p)
 ****
 1  2  13  14  15  16  17  18  19  20  21  23  24  26 0
 3-21G
 ****
 27  28  34  35  38  39  40  41  42  43  44  45  46  47  48 0
 3-21G
 ****


