%nproc=1
%NoSave
%Mem=1900MB
#P OB98/GEN NMR

erre ene a

0 1
  C     -393.782    -981.430      30.513
  O     -394.362    -981.253      29.229
  P     -394.784    -982.577      28.415
  C     -393.459    -984.540      27.339
  O     -393.423    -983.220      27.863
  C     -393.006    -984.539      25.883
  O     -391.742    -983.860      25.736
  C     -392.777    -985.938      25.305
  O     -393.982    -986.552      24.890
  C     -391.908    -985.609      24.098
  O     -392.734    -985.147      23.012
  C     -391.028    -984.473      24.633
  N     -386.275    -985.461      23.204
  C     -387.286    -984.819      22.517
  N     -387.011    -984.442      21.251
  N     -388.470    -984.562      23.030
  C     -388.607    -985.015      24.301
  C     -387.675    -985.658      25.090
  C     -386.380    -985.942      24.502
  O     -385.466    -986.554      25.046
  N     -388.180    -985.944      26.329
  C     -389.410    -985.466      26.304
  N     -389.730    -984.933      25.081
  O     -395.481    -981.988      27.097
  O     -395.682    -983.512      29.158
  H     -393.189    -985.933      22.656
  H     -396.002    -982.684      26.664
  H     -385.393    -985.637      22.762
  H     -390.107    -985.507      27.129
  H     -390.873    -983.690      23.878
  H     -391.357    -986.478      23.729
  H     -386.150    -984.668      20.783
  H     -392.216    -986.565      26.003
  H     -387.753    -984.024      20.702
  H     -393.755    -984.000      25.289
  H     -394.476    -984.918      27.410
  H     -392.804    -985.178      27.943
  P     -394.104    -988.136      25.124
  C     -393.355    -990.206      23.744
  O     -393.540    -988.807      23.784
  O     -395.679    -988.398      25.061
  O     -393.498    -988.616      26.407
  H     -395.916    -989.195      25.569
  H     -393.233    -990.518      22.704
  H     -394.221    -990.728      24.164
  H     -392.456    -990.483      24.306
  H     -393.553    -980.474      30.936
  H     -392.884    -982.005      30.423
  H     -394.472    -981.945      31.148

 3  4  5  6  7  8  9  10  11  12  23  26  30  31 0
 6-311+G(2d,p)
 ****
 33  35  36  37  38 0
 6-311+G(2d,p)
 ****
 1  2  13  14  15  16  17  18  19  20  21  22  24  25 0
 3-21G
 ****
 27  28  29  32  34  39  40  41  42  43  44  45  46  47  48  49 0
 3-21G
 ****


