%nproc=1
%NoSave
%Mem=1900MB
#P OB98/GEN NMR

erre ene a

0 1
  C     -134.116    1006.752     -57.594
  O     -132.747    1006.483     -57.388
  H     -134.691    1006.268     -56.800
  H     -134.442    1006.342     -58.555
  H     -134.311    1007.832     -57.565
  P     -131.700    1007.225     -58.354
  C     -131.100    1009.096     -56.655
  O     -131.680    1008.773     -57.903
  C     -130.129    1010.274     -56.791
  O     -130.878    1011.434     -57.273
  C     -129.443    1010.676     -55.484
  O     -128.097    1011.042     -55.781
  C     -130.212    1011.895     -55.020
  O     -129.451    1012.752     -54.173
  C     -130.628    1012.521     -56.355
  N     -131.820    1013.376     -56.201
  C     -131.581    1014.745     -56.064
  O     -130.440    1015.188     -56.058
  N     -132.667    1015.580     -55.872
  C     -133.852    1015.076     -55.745
  N     -134.866    1015.946     -55.524
  C     -134.135    1013.626     -55.817
  C     -133.077    1012.839     -56.057
  O     -132.447    1007.264     -59.760
  O     -130.352    1006.590     -58.436
  H     -130.040    1013.465     -53.853
  H     -131.815    1007.210     -60.501
  H     -135.138    1013.250     -55.680
  H     -133.182    1011.757     -56.123
  H     -129.821    1013.123     -56.775
  H     -131.111    1011.570     -54.453
  H     -129.449    1009.871     -54.740
  H     -129.398    1010.024     -57.568
  H     -134.642    1016.926     -55.461
  H     -130.543    1008.233     -56.278
  H     -135.835    1015.664     -55.368
  H     -131.892    1009.344     -55.933
  P     -127.194    1009.941     -56.529
  C     -127.294    1010.999     -58.901
  O     -127.633    1009.905     -58.072
  O     -127.718    1008.563     -55.933
  O     -125.727    1010.134     -56.298
  H     -127.046    1008.177     -55.337
  H     -127.656    1010.821     -59.892
  H     -126.230    1011.112     -58.925
  H     -127.739    1011.891     -58.514

 6  7  8  9  10  11  12  13  14  15  16  26  30  31  32  33  35 0
 6-311+G(2d,p)
 ****
 37  38 0
 6-311+G(2d,p)
 ****
 1  2  3  4  5  17  18  19  20  21  22  23  24  25 0
 3-21G
 ****
 27  28  29  34  36  39  40  41  42  43  44  45  46 0
 3-21G
 ****


