%nproc=1
%NoSave
%Mem=1900MB
#P OB98/GEN NMR

erre ene a

0 1
  C      -64.007    -438.610    -180.483
  O      -64.320    -437.393    -181.135
  H      -64.510    -439.426    -181.006
  H      -64.344    -438.596    -179.444
  H      -62.926    -438.784    -180.521
  P      -63.929    -436.022    -180.401
  C      -62.269    -435.086    -182.140
  O      -62.422    -435.702    -180.863
  C      -60.847    -434.564    -182.336
  O      -60.582    -433.456    -181.452
  C      -59.762    -435.582    -182.022
  O      -59.710    -436.684    -182.899
  C      -58.538    -434.697    -181.865
  O      -57.941    -434.368    -183.118
  C      -59.153    -433.433    -181.219
  N      -58.838    -433.322    -179.798
  C      -58.555    -432.046    -179.335
  O      -58.540    -431.049    -180.054
  N      -58.254    -431.950    -178.001
  C      -58.159    -432.989    -177.125
  O      -57.861    -432.844    -175.948
  C      -58.431    -434.324    -177.688
  C      -58.754    -434.432    -178.976
  O      -64.124    -436.005    -178.913
  O      -64.786    -434.913    -181.176
  H      -57.493    -435.172    -183.444
  H      -64.825    -434.069    -180.664
  H      -58.060    -431.028    -177.641
  H      -58.354    -435.173    -177.025
  H      -58.963    -435.401    -179.413
  H      -58.776    -432.529    -181.722
  H      -57.764    -435.168    -181.254
  H      -59.967    -436.004    -181.027
  H      -60.758    -434.196    -183.365
  H      -62.969    -434.243    -182.187
  H      -62.523    -435.803    -182.924
  P      -58.753    -437.939    -182.694
  C      -60.259    -439.017    -180.845
  O      -58.977    -438.519    -181.213
  O      -57.347    -437.799    -183.187
  O      -59.482    -439.056    -183.609
  H      -58.778    -439.621    -183.983
  H      -60.231    -439.361    -179.832
  H      -60.525    -439.828    -181.490
  H      -60.985    -438.236    -180.936

 6  7  8  9  10  11  12  13  14  15  16  26  31  32  33  34  35 0
 6-311+G(2d,p)
 ****
 36  37 0
 6-311+G(2d,p)
 ****
 1  2  3  4  5  17  18  19  20  21  22  23  24  25 0
 3-21G
 ****
 27  28  29  30  38  39  40  41  42  43  44  45 0
 3-21G
 ****


