%nproc=1
%NoSave
%Mem=1900MB
#P OB98/GEN NMR

erre ene a

0 1
  C      469.962     526.361     343.517
  O      470.970     527.330     343.753
  P      470.523     528.874     343.848
  C      471.950     529.822     341.880
  O      471.753     529.738     343.282
  C      473.063     530.811     341.552
  O      472.600     532.149     341.880
  C      474.373     530.587     342.314
  O      475.443     530.999     341.444
  C      474.265     531.555     343.474
  O      475.528     531.878     344.044
  C      473.547     532.722     342.807
  N      474.107     536.042     346.585
  C      475.062     535.313     345.899
  N      476.350     535.548     346.229
  N      474.779     534.436     344.974
  C      473.448     534.322     344.739
  C      472.413     534.955     345.375
  C      472.742     535.951     346.368
  O      471.930     536.683     346.939
  N      471.197     534.507     344.921
  C      471.502     533.665     343.956
  N      472.856     533.552     343.778
  O      470.556     529.157     345.423
  O      469.197     529.205     343.237
  H      475.399     532.635     344.652
  H      469.675     529.025     345.825
  H      474.387     536.721     347.276
  H      470.794     533.116     343.358
  H      474.233     533.371     342.246
  H      473.649     531.111     344.268
  H      476.646     536.232     346.916
  H      474.525     529.554     342.635
  H      477.073     535.052     345.722
  H      473.236     530.786     340.466
  H      471.018     530.162     341.413
  H      472.180     528.826     341.486
  P      476.576     529.919     341.091
  C      478.560     531.415     341.824
  O      477.925     530.726     340.764
  O      476.113     529.385     339.647
  O      476.695     528.798     342.061
  H      476.371     528.449     339.547
  H      479.616     531.561     341.563
  H      478.502     530.861     342.760
  H      478.092     532.400     341.952
  H      470.405     525.388     343.479
  H      469.478     526.569     342.586
  H      469.242     526.395     344.308

 3  4  5  6  7  8  9  10  11  12  23  26  30  31 0
 6-311+G(2d,p)
 ****
 33  35  36  37  38 0
 6-311+G(2d,p)
 ****
 1  2  13  14  15  16  17  18  19  20  21  22  24  25 0
 3-21G
 ****
 27  28  29  32  34  39  40  41  42  43  44  45  46  47  48  49 0
 3-21G
 ****


