%nproc=1
%NoSave
%Mem=1900MB
#P OB98/GEN NMR

erre ene a

0 1
  C     -112.696     148.287     197.425
  O     -111.898     147.542     196.502
  P     -110.314     147.564     196.754
  C     -109.350     149.206     194.990
  O     -109.767     149.013     196.334
  C     -108.743     150.599     194.808
  O     -107.374     150.663     195.249
  C     -108.738     151.069     193.359
  O     -110.021     151.547     192.999
  C     -107.678     152.161     193.391
  O     -108.232     153.416     193.837
  C     -106.670     151.625     194.421
  N     -102.171     152.468     192.247
  C     -103.182     153.355     192.559
  N     -102.953     154.653     192.276
  N     -104.317     152.998     193.103
  C     -104.408     151.668     193.336
  C     -103.465     150.696     193.096
  C     -102.215     151.102     192.489
  O     -101.281     150.359     192.214
  N     -103.894     149.464     193.520
  C     -105.142     149.675     193.896
  N     -105.481     151.005     193.865
  O     -109.746     146.590     195.617
  O     -109.922     147.104     198.118
  H     -108.916     153.705     193.207
  H     -109.413     145.769     196.023
  H     -101.322     152.795     191.820
  H     -105.828     148.909     194.224
  H     -106.315     152.421     195.088
  H     -107.254     152.348     192.401
  H     -102.101     154.998     191.858
  H     -108.417     150.253     192.699
  H     -103.679     155.320     192.503
  H     -109.330     151.296     195.420
  H     -110.198     149.082     194.315
  H     -108.626     148.427     194.732
  P     -111.018     150.534     192.256
  C     -110.011     151.056     189.921
  O     -110.310     150.077     190.895
  O     -112.209     151.490     191.769
  O     -111.531     149.428     193.116
  H     -113.065     151.060     191.952
  H     -109.130     150.737     189.360
  H     -109.809     152.031     190.374
  H     -110.856     151.147     189.234
  H     -113.728     148.198     197.157
  H     -112.407     149.317     197.396
  H     -112.550     147.904     198.413

 3  4  5  6  7  8  9  10  11  12  23  26  30  31 0
 6-311+G(2d,p)
 ****
 33  35  36  37  38 0
 6-311+G(2d,p)
 ****
 1  2  13  14  15  16  17  18  19  20  21  22  24  25 0
 3-21G
 ****
 27  28  29  32  34  39  40  41  42  43  44  45  46  47  48  49 0
 3-21G
 ****


