%nproc=1
%NoSave
%Mem=1900MB
#P OB98/GEN NMR

erre ene a

0 1
  C      -23.230    -238.724    -273.774
  O      -23.474    -237.552    -273.018
  H      -22.311    -238.582    -274.352
  H      -24.052    -238.911    -274.468
  H      -23.100    -239.584    -273.111
  P      -24.774    -237.506    -272.086
  C      -23.576    -236.330    -270.123
  O      -24.583    -236.238    -271.123
  C      -23.397    -234.981    -269.437
  O      -22.509    -234.140    -270.201
  C      -24.698    -234.193    -269.269
  O      -25.417    -234.658    -268.142
  C      -24.143    -232.782    -269.088
  O      -23.631    -232.636    -267.752
  C      -22.989    -232.769    -270.106
  N      -24.224    -228.767    -272.968
  C      -23.968    -228.845    -271.614
  N      -24.099    -227.696    -270.911
  N      -23.631    -229.948    -270.995
  C      -23.607    -231.026    -271.812
  C      -23.859    -231.085    -273.161
  C      -24.174    -229.845    -273.844
  O      -24.394    -229.729    -275.044
  N      -23.803    -232.371    -273.638
  C      -23.479    -233.088    -272.579
  N      -23.364    -232.321    -271.439
  O      -25.112    -238.773    -271.355
  O      -25.945    -237.049    -273.074
  H      -24.370    -232.845    -267.148
  H      -26.405    -237.820    -273.460
  H      -24.495    -227.889    -273.377
  H      -23.314    -234.158    -272.579
  H      -22.150    -232.151    -269.776
  H      -24.889    -232.007    -269.238
  H      -24.619    -226.904    -271.274
  H      -25.302    -234.208    -270.190
  H      -23.961    -227.741    -269.911
  H      -22.915    -235.156    -268.462
  H      -22.648    -236.631    -270.619
  H      -23.840    -237.086    -269.384
  P      -27.025    -234.683    -268.136
  C      -27.698    -236.899    -266.984
  O      -27.418    -235.509    -266.822
  O      -27.648    -235.181    -269.401
  O      -27.445    -233.191    -267.750
  H      -27.539    -232.589    -268.532
  H      -27.945    -237.326    -266.034
  H      -26.837    -237.392    -267.384
  H      -28.523    -237.021    -267.655

 6  7  8  9  10  11  12  13  14  15  26  29  33  34 0
 6-311+G(2d,p)
 ****
 36  38  39  40  41 0
 6-311+G(2d,p)
 ****
 1  2  3  4  5  16  17  18  19  20  21  22  23  24  25 0
 3-21G
 ****
 27  28  30  31  32  35  37  42  43  44  45  46  47 0
 3-21G
 ****
 48  49 0
 3-21G
 ****


