%nproc=1
%NoSave
%Mem=1900MB
#P OB98/GEN NMR

erre ene a

0 1
  C      -20.477     417.833      -8.404
  O      -21.854     418.203      -8.287
  P      -22.656     418.063      -6.904
  C      -23.394     420.521      -6.834
  O      -23.826     419.165      -6.813
  C      -24.529     421.512      -7.131
  O      -24.652     421.752      -8.561
  C      -25.914     421.074      -6.637
  O      -26.613     422.280      -6.310
  C      -26.505     420.432      -7.880
  O      -27.924     420.318      -7.837
  C      -25.983     421.374      -8.958
  N      -27.737     421.753     -13.755
  C      -27.761     422.618     -12.721
  N      -27.241     422.462     -11.486
  C      -26.605     421.287     -11.378
  C      -26.488     420.305     -12.351
  C      -27.099     420.572     -13.590
  N      -27.117     419.672     -14.633
  N      -25.788     419.211     -11.866
  C      -25.503     419.529     -10.621
  N      -25.969     420.772     -10.278
  O      -21.782     418.002      -5.690
  O      -23.465     416.683      -7.058
  H      -28.169     419.896      -6.993
  H      -23.367     416.165      -6.237
  H      -28.275     423.558     -12.907
  H      -24.982     418.893      -9.915
  H      -26.588     422.291      -9.011
  H      -26.093     419.420      -7.991
  H      -25.878     420.399      -5.779
  H      -24.250     422.475      -6.679
  H      -22.612     420.627      -7.597
  H      -27.661     419.917     -15.453
  H      -26.761     418.742     -14.486
  H      -22.940     420.762      -5.864
  P      -27.656     422.347      -5.091
  C      -27.114     424.836      -4.835
  O      -28.140     423.869      -4.986
  O      -27.162     421.756      -3.811
  O      -28.955     421.584      -5.630
  H      -29.511     421.315      -4.874
  H      -26.743     424.822      -3.808
  H      -27.522     425.825      -5.059
  H      -26.283     424.638      -5.522
  H      -20.145     418.007      -9.406
  H      -20.365     416.796      -8.166
  H      -19.891     418.419      -7.727

 3  4  5  6  7  8  9  10  11  12  22  25  29  30  31  32 0
 6-311+G(2d,p)
 ****
 33  36  37 0
 6-311+G(2d,p)
 ****
 1  2  13  14  15  16  17  18  19  20  21  23  24  26 0
 3-21G
 ****
 27  28  34  35  38  39  40  41  42  43  44  45  46  47  48 0
 3-21G
 ****


