%nproc=1
%NoSave
%Mem=1900MB
#P OB98/GEN NMR

erre ene a

0 1
  C     -218.275     812.680     478.478
  O     -216.908     812.656     478.876
  P     -215.826     813.402     477.957
  C     -214.967     815.454     479.394
  O     -214.760     814.160     478.881
  C     -213.616     816.032     479.859
  O     -213.736     817.463     480.083
  C     -213.116     815.419     481.160
  O     -212.367     814.228     480.929
  C     -212.279     816.552     481.738
  O     -211.011     816.623     481.079
  C     -213.149     817.773     481.374
  N     -214.245     818.159     482.305
  C     -213.926     818.664     483.571
  O     -212.783     818.805     483.988
  N     -214.993     819.006     484.355
  C     -216.303     819.067     483.975
  O     -217.209     819.440     484.705
  C     -216.563     818.670     482.582
  C     -215.539     818.234     481.831
  O     -216.658     814.595     477.285
  O     -215.173     812.533     476.936
  H     -211.181     816.636     480.122
  H     -216.708     814.467     476.322
  H     -214.790     819.297     485.308
  H     -217.585     818.745     482.220
  H     -215.730     817.932     480.801
  H     -212.523     818.666     481.242
  H     -212.071     816.382     482.792
  H     -213.946     815.228     481.841
  H     -212.881     815.879     479.058
  H     -215.672     815.440     480.226
  H     -215.403     816.099     478.620
  P     -212.482     813.010     481.957
  C     -215.005     812.558     481.988
  O     -213.753     812.154     481.481
  O     -212.446     813.373     483.416
  O     -211.248     812.066     481.545
  H     -210.464     812.243     482.114
  H     -215.799     812.019     481.472
  H     -215.149     813.639     481.823
  H     -215.064     812.346     483.060
  H     -218.864     812.142     479.191
  H     -218.374     812.223     477.516
  H     -218.614     813.694     478.428

 3  4  5  6  7  8  9  10  11  12  13  23  28  29  30  31  32 0
 6-311+G(2d,p)
 ****
 33  34 0
 6-311+G(2d,p)
 ****
 1  2  14  15  16  17  18  19  20  21  22  24  25  26  27 0
 3-21G
 ****
 35  36  37  38  39  40  41  42  43  44  45 0
 3-21G
 ****


