%nproc=1
%NoSave
%Mem=1900MB
#P OB98/GEN NMR

erre ene a

0 1
  C     -898.930    -233.223     237.354
  O     -898.160    -233.343     236.175
  H     -899.000    -234.197     237.828
  H     -899.950    -232.884     237.113
  H     -898.460    -232.525     238.057
  P     -897.820    -232.019     235.328
  C     -895.380    -232.470     234.695
  O     -896.710    -232.448     234.247
  C     -894.580    -233.572     233.999
  O     -895.030    -234.867     234.503
  C     -894.760    -233.593     232.469
  O     -893.510    -233.944     231.862
  C     -895.760    -234.709     232.237
  O     -895.630    -235.288     230.945
  C     -895.420    -235.671     233.384
  N     -898.490    -239.324     231.711
  C     -897.380    -238.771     231.119
  N     -897.030    -239.218     229.896
  N     -896.660    -237.809     231.692
  C     -897.090    -237.467     232.917
  C     -898.190    -237.964     233.611
  C     -898.990    -238.978     232.957
  O     -900.000    -239.506     233.437
  N     -898.320    -237.327     234.824
  C     -897.330    -236.479     234.880
  N     -896.560    -236.507     233.735
  O     -897.480    -230.818     236.128
  O     -899.130    -231.791     234.430
  H     -894.680    -235.441     230.798
  H     -899.700    -231.096     234.832
  H     -899.010    -240.035     231.227
  H     -897.120    -235.796     235.689
  H     -894.600    -236.351     233.136
  H     -896.780    -234.310     232.347
  H     -897.530    -239.946     229.411
  H     -895.110    -232.637     232.063
  H     -896.210    -238.829     229.454
  H     -893.510    -233.489     234.267
  H     -895.380    -232.652     235.780
  H     -894.900    -231.489     234.499
  P     -892.620    -232.785     231.194
  C     -890.400    -233.857     231.971
  O     -891.190    -233.394     230.869
  O     -892.620    -231.471     231.905
  O     -893.290    -232.651     229.725
  H     -893.180    -231.744     229.416
  H     -889.469    -234.238     231.607
  H     -890.927    -234.633     232.486
  H     -890.215    -233.045     232.643

 6  7  8  9  10  11  12  13  14  15  26  29  33  34 0
 6-311+G(2d,p)
 ****
 36  38  39  40  41 0
 6-311+G(2d,p)
 ****
 1  2  3  4  5  16  17  18  19  20  21  22  23  24  25 0
 3-21G
 ****
 27  28  30  31  32  35  37  42  43  44  45  46  47 0
 3-21G
 ****
 48  49 0
 3-21G
 ****


