%nproc=1
%NoSave
%Mem=1900MB
#P OB98/GEN NMR

erre ene a

0 1
  C     -405.862    -151.029      47.265
  O     -405.743    -149.963      48.200
  P     -404.356    -149.812      48.986
  C     -404.434    -147.228      49.170
  O     -404.472    -148.473      49.867
  C     -405.104    -146.132      49.992
  O     -406.546    -146.337      49.963
  C     -404.676    -146.083      51.461
  O     -404.461    -144.718      51.851
  C     -405.901    -146.587      52.209
  O     -405.946    -146.103      53.548
  C     -407.014    -146.067      51.300
  N     -411.554    -145.362      53.403
  C     -410.553    -144.445      53.135
  N     -410.775    -143.177      53.541
  N     -409.433    -144.752      52.535
  C     -409.362    -146.051      52.157
  C     -410.291    -147.046      52.352
  C     -411.500    -146.709      53.074
  O     -412.379    -147.494      53.423
  N     -409.867    -148.239      51.811
  C     -408.684    -147.964      51.291
  N     -408.315    -146.662      51.519
  O     -403.329    -149.415      47.823
  O     -403.896    -151.030      49.716
  H     -405.970    -145.130      53.503
  H     -402.581    -150.049      47.803
  H     -412.388    -145.075      53.885
  H     -408.053    -148.674      50.775
  H     -407.121    -144.980      51.413
  H     -405.876    -147.683      52.236
  H     -411.628    -142.866      53.981
  H     -403.776    -146.673      51.688
  H     -410.062    -142.485      53.337
  H     -404.915    -145.165      49.500
  H     -404.958    -147.340      48.212
  H     -403.386    -146.968      48.975
  P     -403.185    -144.441      52.793
  C     -402.673    -142.096      51.776
  O     -403.062    -142.850      52.911
  O     -401.945    -144.851      51.858
  O     -403.204    -145.205      54.080
  H     -401.177    -145.098      52.404
  H     -402.645    -142.709      50.863
  H     -401.679    -141.686      51.950
  H     -403.382    -141.278      51.635
  H     -406.835    -151.006      46.820
  H     -405.722    -151.963      47.769
  H     -405.119    -150.920      46.503

 3  4  5  6  7  8  9  10  11  12  23  26  30  31  33  0
 6-311+G(2d,p)
 ****
 35  36  37  38 0
 6-311+G(2d,p)
 ****
 1  2  13  14  15  16  17  18  19  20  21  22  24  25  27  28  29 0
 3-21G
 ****
 32  34  39  40  41  42  43  44  45  46  47  48  49 0
 3-21G
 ****


