%nproc=1
%NoSave
%Mem=1900MB
#P OB98/GEN NMR

erre ene a

0 1
  C      -82.744    -325.535    1161.201
  O      -82.364    -326.380    1160.129
  P      -81.396    -325.747    1159.010
  C      -80.815    -328.069    1158.010
  O      -81.363    -326.771    1157.780
  C      -80.000    -328.509    1156.786
  O      -79.075    -327.451    1156.399
  C      -79.111    -329.758    1157.014
  O      -79.882    -330.937    1157.004
  C      -78.136    -329.613    1155.847
  O      -78.758    -330.077    1154.627
  C      -77.926    -328.079    1155.775
  N      -72.866    -327.356    1155.391
  C      -73.774    -327.829    1154.503
  N      -75.105    -327.999    1154.681
  C      -75.466    -327.650    1155.932
  C      -74.636    -327.173    1156.935
  C      -73.286    -327.012    1156.634
  N      -72.353    -326.536    1157.526
  N      -75.345    -326.922    1158.074
  C      -76.593    -327.243    1157.776
  N      -76.718    -327.652    1156.477
  O      -79.923    -325.882    1159.652
  O      -81.703    -324.324    1158.654
  H      -78.160    -329.837    1153.896
  H      -79.359    -325.123    1159.400
  H      -73.384    -328.077    1153.533
  H      -77.451    -327.141    1158.442
  H      -77.859    -327.698    1154.749
  H      -77.219    -330.178    1155.996
  H      -78.560    -329.641    1157.962
  H      -80.681    -328.687    1155.953
  H      -81.622    -328.801    1158.158
  H      -71.375    -326.595    1157.265
  H      -72.630    -326.409    1158.495
  H      -80.180    -328.039    1158.902
  P      -79.193    -332.271    1157.608
  C      -81.573    -333.207    1157.816
  O      -80.258    -333.416    1157.326
  O      -79.354    -332.019    1159.192
  O      -77.786    -332.523    1157.146
  H      -80.244    -331.762    1159.448
  H      -82.196    -334.003    1157.508
  H      -81.985    -332.269    1157.434
  H      -81.550    -333.163    1158.937
  H      -83.383    -326.073    1161.870
  H      -83.266    -324.684    1160.816
  H      -81.870    -325.210    1161.726

 3  4  5  6  7  8  9  10  11  12  22  25  29  30  31  32 0
 6-311+G(2d,p)
 ****
 33  36  37 0
 6-311+G(2d,p)
 ****
 1  2  13  14  15  16  17  18  19  20  21  23  24  26 0
 3-21G
 ****
 27  28  34  35  38  39  40  41  42  43  44  45  46  47  48 0
 3-21G
 ****


