%nproc=1
%NoSave
%Mem=1900MB
#P OB98/GEN NMR

erre ene a

0 1
  C      602.084    -489.326     -58.730
  O      602.366    -490.494     -57.981
  H      602.924    -488.626     -58.677
  H      601.927    -489.613     -59.774
  H      601.167    -488.854     -58.353
  P      602.733    -490.277     -56.439
  C      604.350    -488.687     -55.175
  O      604.028    -489.321     -56.400
  C      605.565    -487.786     -55.352
  O      605.276    -486.731     -56.291
  C      606.025    -487.075     -54.080
  O      606.776    -487.932     -53.230
  C      606.888    -485.965     -54.669
  O      608.190    -486.496     -55.000
  C      606.128    -485.604     -55.952
  N      606.067    -480.569     -54.930
  C      607.088    -481.474     -54.968
  N      607.024    -482.795     -55.236
  C      605.760    -483.163     -55.508
  C      604.640    -482.360     -55.505
  C      604.816    -481.009     -55.202
  N      603.787    -480.098     -55.150
  N      603.514    -483.088     -55.842
  C      603.954    -484.319     -56.049
  N      605.310    -484.412     -55.841
  O      603.313    -491.697     -55.983
  O      601.597    -489.841     -55.563
  H      608.040    -487.194     -55.665
  H      603.048    -491.871     -55.061
  H      608.071    -481.074     -54.749
  H      603.338    -485.162     -56.343
  H      606.817    -485.462     -56.803
  H      607.043    -485.130     -53.988
  H      605.176    -486.618     -53.547
  H      606.387    -488.390     -55.765
  H      604.574    -489.451     -54.421
  H      604.002    -479.115     -55.124
  H      602.852    -480.432     -55.364
  H      603.489    -488.099     -54.836
  P      606.604    -487.739     -51.649
  C      606.727    -485.712     -50.037
  O      606.897    -486.185     -51.362
  O      607.894    -488.473     -51.053
  O      605.341    -488.286     -51.072
  H      607.716    -488.764     -50.143
  H      606.956    -484.668     -49.999
  H      607.383    -486.245     -49.381
  H      605.713    -485.866     -49.731

 6  7  8  9  10  11  12  13  14  15  25  28  32  33  34  35 0
 6-311+G(2d,p)
 ****
 36  39  40 0
 6-311+G(2d,p)
 ****
 1  2  3  4  5  16  17  18  19  20  21  22  23  24 0
 3-21G
 ****
 26  27  29  30  31  37  38  41  42  43  44  45  46  47  48 0
 3-21G
 ****


