%nproc=1
%NoSave
%Mem=1900MB
#P OB98/GEN NMR

erre ene a

0 1
  C     -583.776     434.102    -761.315
  O     -583.201     432.821    -761.131
  H     -584.840     433.979    -761.513
  H     -583.317     434.600    -762.174
  H     -583.648     434.715    -760.417
  P     -581.627     432.732    -760.830
  C     -580.245     431.560    -762.681
  O     -580.909     432.759    -762.268
  C     -581.247     430.595    -763.303
  O     -582.099     431.291    -764.236
  C     -580.599     429.445    -764.085
  O     -580.185     428.422    -763.195
  C     -581.760     429.033    -764.976
  O     -582.709     428.263    -764.211
  C     -582.363     430.409    -765.352
  N     -583.142     431.436    -770.264
  C     -583.931     430.739    -769.371
  N     -585.071     430.220    -769.855
  N     -583.620     430.566    -768.104
  C     -582.423     431.083    -767.772
  C     -581.530     431.776    -768.577
  C     -581.919     432.008    -769.956
  O     -581.249     432.631    -770.778
  N     -580.374     432.089    -767.908
  C     -580.586     431.632    -766.679
  N     -581.800     430.991    -766.559
  O     -581.179     431.607    -759.945
  O     -581.268     434.167    -760.217
  H     -583.440     428.039    -764.810
  H     -581.315     434.154    -759.243
  H     -583.424     431.521    -771.232
  H     -579.871     431.725    -765.858
  H     -583.456     430.355    -765.487
  H     -581.448     428.421    -765.815
  H     -585.220     430.081    -770.842
  H     -579.777     429.804    -764.718
  H     -585.654     429.673    -769.222
  H     -581.901     430.207    -762.504
  H     -579.782     431.117    -761.788
  H     -579.451     431.796    -763.399
  P     -578.893     427.508    -763.531
  C     -579.728     425.091    -763.985
  O     -579.457     426.382    -764.538
  O     -578.177     426.973    -762.332
  O     -577.996     428.422    -764.486
  H     -577.355     428.984    -763.991
  H     -580.094     424.443    -764.754
  H     -580.464     425.181    -763.214
  H     -578.828     424.683    -763.574

 6  7  8  9  10  11  12  13  14  15  26  29  33  34 0
 6-311+G(2d,p)
 ****
 36  38  39  40  41 0
 6-311+G(2d,p)
 ****
 1  2  3  4  5  16  17  18  19  20  21  22  23  24  25 0
 3-21G
 ****
 27  28  30  31  32  35  37  42  43  44  45  46  47 0
 3-21G
 ****
 48  49 0
 3-21G
 ****


