%nproc=1
%NoSave
%Mem=1900MB
#P OB98/GEN NMR

erre ene a

0 1
  C     -319.782     214.213    -233.019
  O     -319.944     214.067    -231.625
  H     -319.890     215.269    -233.277
  H     -320.554     213.646    -233.546
  H     -318.791     213.871    -233.330
  P     -319.671     212.616    -230.997
  C     -317.796     212.640    -229.201
  O     -318.120     212.580    -230.582
  C     -316.938     213.871    -228.908
  O     -317.710     215.061    -229.216
  C     -316.483     213.971    -227.451
  O     -315.147     214.480    -227.424
  C     -317.426     214.994    -226.848
  O     -316.869     215.655    -225.712
  C     -317.705     215.906    -228.049
  N     -318.966     216.624    -227.895
  C     -318.900     217.888    -227.301
  O     -317.817     218.341    -226.928
  N     -320.062     218.583    -227.090
  C     -321.201     218.030    -227.367
  N     -322.321     218.758    -227.107
  C     -321.323     216.672    -227.932
  C     -320.177     216.037    -228.175
  O     -319.733     211.645    -232.265
  O     -320.611     212.201    -229.914
  H     -317.512     216.330    -225.403
  H     -320.073     210.764    -232.020
  H     -322.296     216.243    -228.122
  H     -320.168     215.033    -228.583
  H     -316.896     216.638    -228.173
  H     -318.350     214.497    -226.526
  H     -316.518     213.015    -226.922
  H     -316.078     213.864    -229.588
  H     -322.196     219.678    -226.703
  H     -317.232     211.742    -228.928
  H     -323.258     218.411    -227.240
  H     -318.719     212.669    -228.613
  P     -313.962     213.401    -227.462
  C     -312.427     214.404    -229.302
  O     -313.350     213.384    -228.944
  O     -314.732     212.004    -227.352
  O     -312.963     213.569    -226.366
  H     -314.581     211.607    -226.475
  H     -312.110     214.259    -230.314
  H     -311.578     214.361    -228.653
  H     -312.898     215.360    -229.209

 6  7  8  9  10  11  12  13  14  15  16  26  30  31  32  33  35 0
 6-311+G(2d,p)
 ****
 37  38 0
 6-311+G(2d,p)
 ****
 1  2  3  4  5  17  18  19  20  21  22  23  24  25 0
 3-21G
 ****
 27  28  29  34  36  39  40  41  42  43  44  45  46 0
 3-21G
 ****


