%nproc=1
%NoSave
%Mem=1900MB
#P OB98/GEN NMR

erre ene a

0 1
  C      493.460    -161.951    -737.782
  O      494.513    -161.195    -738.392
  P      495.857    -160.770    -737.623
  C      497.377    -161.792    -739.447
  O      497.030    -161.779    -738.071
  C      498.898    -161.818    -739.619
  O      499.469    -160.531    -739.294
  C      499.641    -162.793    -738.717
  O      499.473    -164.145    -739.119
  C      501.078    -162.273    -738.829
  O      501.727    -162.810    -739.993
  C      500.865    -160.756    -738.999
  N      501.282    -159.996    -737.835
  C      502.544    -159.396    -737.892
  O      503.278    -159.591    -738.866
  N      502.945    -158.601    -736.848
  C      502.208    -158.507    -735.788
  N      502.646    -157.699    -734.789
  C      500.930    -159.238    -735.629
  C      500.532    -159.950    -736.676
  O      495.696    -160.659    -736.141
  O      496.284    -159.365    -738.264
  H      496.807    -158.858    -737.614
  H      502.546    -162.287    -740.122
  H      500.359    -159.159    -734.710
  H      499.600    -160.500    -736.647
  H      501.409    -160.397    -739.879
  H      501.684    -162.548    -737.964
  H      499.294    -162.661    -737.679
  H      499.119    -162.040    -740.676
  H      503.522    -157.201    -734.935
  H      496.983    -160.881    -739.920
  H      502.134    -157.539    -733.939
  H      496.917    -162.663    -739.930
  P      499.647    -165.261    -737.979
  C      498.216    -166.939    -739.358
  O      498.423    -166.292    -738.120
  O      499.336    -164.473    -736.620
  O      501.001    -165.893    -737.944
  H      499.942    -164.781    -735.921
  H      497.732    -167.903    -739.174
  H      499.164    -167.119    -739.880
  H      497.568    -166.317    -739.977
  H      492.676    -162.108    -738.493
  H      493.076    -161.413    -736.940
  H      493.842    -162.897    -737.458

 3  4  5  6  7  8  9  10  11  12  13  24  27  28  29  30  32 0
 6-311+G(2d,p)
 ****
 34  35 0
 6-311+G(2d,p)
 ****
 1  2  14  15  16  17  18  19  20  21  22  23  25  26 0
 3-21G
 ****
 31  33  36  37  38  39  40  41  42  43  44  45  46 0
 3-21G
 ****


