%nproc=1
%NoSave
%Mem=1900MB
#P OB98/GEN NMR

erre ene a

0 1
  C      161.776      61.433      10.796
  O      163.096      61.864      10.516
  P      164.356      61.095      11.141
  C      165.403      62.481      13.049
  O      164.398      61.536      12.688
  C      165.141      63.836      12.389
  O      163.831      64.325      12.743
  C      166.121      64.927      12.801
  O      167.358      64.770      12.134
  C      165.344      66.179      12.414
  O      165.492      66.473      11.017
  C      163.886      65.771      12.733
  N      163.411      66.340      13.988
  C      163.032      67.686      13.946
  O      163.136      68.327      12.900
  N      162.586      68.284      15.101
  C      162.549      67.599      16.204
  N      162.114      68.246      17.321
  C      162.972      66.188      16.300
  C      163.390      65.625      15.164
  O      165.637      61.256      10.394
  O      163.850      59.577      11.222
  H      166.324      66.983      10.934
  H      163.834      59.151      10.327
  H      162.934      65.662      17.245
  H      163.721      64.593      15.144
  H      163.211      66.101      11.931
  H      165.682      67.064      12.966
  H      166.258      64.908      13.893
  H      165.171      63.694      11.299
  H      161.862      69.226      17.219
  H      166.373      62.098      12.716
  H      162.081      67.821      18.234
  H      165.429      62.579      14.141
  P      168.725      65.124      12.892
  C      169.919      67.149      11.852
  O      168.945      66.710      12.784
  O      169.903      64.286      12.509
  O      168.360      64.916      14.437
  H      169.087      64.431      14.872
  H      169.741      68.206      11.635
  H      169.856      66.578      10.922
  H      170.915      67.036      12.285
  H      161.079      62.069      10.291
  H      161.602      61.479      11.851
  H      161.650      60.426      10.457

 3  4  5  6  7  8  9  10  11  12  13  23  27  28  29  30  32 0
 6-311+G(2d,p)
 ****
 34  35 0
 6-311+G(2d,p)
 ****
 1  2  14  15  16  17  18  19  20  21  22  24  25  26 0
 3-21G
 ****
 31  33  36  37  38  39  40  41  42  43  44  45  46 0
 3-21G
 ****


