%nproc=1
%NoSave
%Mem=1900MB
#P OB98/GEN NMR

erre ene a

0 1
  C     -458.844    -534.190     108.897
  O     -459.197    -535.482     108.452
  H     -458.435    -533.629     108.050
  H     -458.077    -534.245     109.675
  H     -459.723    -533.656     109.271
  P     -459.822    -536.511     109.513
  C     -459.038    -537.173     111.894
  O     -458.660    -536.694     110.617
  C     -457.905    -536.950     112.895
  O     -457.716    -535.545     113.170
  C     -458.126    -537.580     114.267
  O     -457.976    -538.995     114.283
  C     -457.031    -536.882     115.052
  O     -455.757    -537.454     114.733
  C     -457.157    -535.437     114.514
  N     -458.006    -534.589     115.350
  C     -457.696    -534.531     116.712
  O     -456.745    -535.180     117.164
  N     -458.474    -533.772     117.549
  C     -459.506    -533.142     117.065
  N     -460.253    -532.400     117.940
  C     -459.886    -533.178     115.649
  C     -459.103    -533.918     114.848
  O     -460.373    -537.779     108.950
  O     -460.900    -535.648     110.327
  H     -455.720    -537.531     113.762
  H     -461.324    -536.247     110.993
  H     -460.770    -532.661     115.296
  H     -459.324    -533.996     113.792
  H     -456.170    -534.972     114.424
  H     -457.161    -536.966     116.139
  H     -459.100    -537.291     114.679
  H     -456.979    -537.317     112.428
  H     -459.963    -532.393     118.909
  H     -459.279    -538.238     111.804
  H     -461.106    -531.939     117.673
  H     -459.918    -536.634     112.244
  P     -458.518    -539.768     115.579
  C     -457.967    -539.626     118.126
  O     -457.597    -539.307     116.799
  O     -458.084    -541.283     115.303
  O     -459.991    -539.641     115.830
  H     -458.831    -541.804     114.946
  H     -457.235    -539.238     118.803
  H     -458.025    -540.689     118.234
  H     -458.920    -539.192     118.344

 6  7  8  9  10  11  12  13  14  15  16  26  30  31  32  33  35 0
 6-311+G(2d,p)
 ****
 37  38 0
 6-311+G(2d,p)
 ****
 1  2  3  4  5  17  18  19  20  21  22  23  24  25 0
 3-21G
 ****
 27  28  29  34  36  39  40  41  42  43  44  45  46 0
 3-21G
 ****


