%nproc=1
%NoSave
%Mem=1900MB
#P OB98/GEN NMR

erre ene a

0 1
  C      177.704     -98.314     192.428
  O      177.351     -99.691     192.606
  P      177.327    -100.627     191.299
  C      175.092     -99.919     190.174
  O      176.514     -99.868     190.135
  C      174.516    -100.401     188.834
  O      173.072    -100.604     188.938
  C      174.739     -99.414     187.680
  O      174.843    -100.163     186.464
  C      173.445     -98.625     187.657
  O      173.255     -97.955     186.413
  C      172.438     -99.735     187.968
  N      168.045     -97.584     186.700
  C      169.128     -97.947     185.910
  N      168.999     -97.730     184.579
  N      170.230     -98.467     186.378
  C      170.196     -98.663     187.729
  C      169.199     -98.332     188.612
  C      167.997     -97.735     188.083
  O      167.012     -97.383     188.737
  N      169.546     -98.664     189.902
  C      170.764     -99.173     189.796
  N      171.189     -99.224     188.485
  O      176.343    -101.818     191.731
  O      178.670    -101.149     190.908
  H      172.391     -97.484     186.460
  H      176.855    -102.634     191.873
  H      167.227     -97.173     186.282
  H      171.368     -99.517     190.613
  H      172.192    -100.338     187.085
  H      173.455     -97.871     188.459
  H      168.160     -97.375     184.150
  H      175.627     -98.779     187.787
  H      169.758     -98.024     183.974
  H      174.963    -101.367     188.587
  H      174.686     -98.930     190.415
  H      174.787    -100.572     191.001
  P      176.310    -100.338     185.836
  C      176.542     -97.893     184.982
  O      176.996     -98.888     185.884
  O      176.027    -100.571     184.277
  O      177.113    -101.448     186.433
  H      176.764    -101.064     183.871
  H      175.900     -97.184     185.522
  H      175.980     -98.325     184.144
  H      177.409     -97.357     184.586
  H      177.679     -97.814     193.374
  H      177.007     -97.850     191.761
  H      178.689     -98.249     192.016

 3  4  5  6  7  8  9  10  11  12  23  26  30  31 0
 6-311+G(2d,p)
 ****
 33  35  36  37  38 0
 6-311+G(2d,p)
 ****
 1  2  13  14  15  16  17  18  19  20  21  22  24  25 0
 3-21G
 ****
 27  28  29  32  34  39  40  41  42  43  44  45  46  47  48  49 0
 3-21G
 ****


