%nproc=1
%NoSave
%Mem=1900MB
#P OB98/GEN NMR

erre ene a

0 1
  C     -188.257      97.348     103.483
  O     -188.174      96.049     102.936
  H     -189.014      97.911     102.931
  H     -187.300      97.869     103.391
  H     -188.557      97.300     104.533
  P     -187.046      95.056     103.499
  C     -184.540      94.717     102.931
  O     -185.743      95.401     102.620
  C     -183.339      95.473     102.367
  O     -183.356      96.855     102.782
  C     -181.980      94.949     102.821
  O     -181.607      93.732     102.196
  C     -181.096      96.113     102.401
  O     -180.896      96.076     100.977
  C     -181.976      97.319     102.806
  N     -181.640      97.856     104.123
  C     -181.006      99.103     104.151
  O     -180.755      99.699     103.103
  N     -180.634      99.633     105.363
  C     -180.861      98.966     106.452
  N     -180.430      99.515     107.624
  C     -181.542      97.658     106.473
  C     -181.895      97.163     105.288
  O     -187.409      93.608     103.561
  O     -186.645      95.673     104.921
  H     -180.271      96.790     100.759
  H     -185.956      95.086     105.317
  H     -181.697      97.141     107.407
  H     -182.385      96.198     105.219
  H     -181.896      98.125     102.066
  H     -180.108      96.095     102.870
  H     -181.941      94.856     103.912
  H     -183.430      95.465     101.273
  H     -179.930     100.392     107.567
  H     -184.601      93.708     102.510
  H     -180.316      98.950     108.459
  H     -184.419      94.640     104.016
  P     -180.573      92.776     102.971
  C     -177.969      92.683     102.994
  O     -179.135      93.481     102.873
  O     -180.447      91.520     101.991
  O     -180.967      92.384     104.360
  H     -181.068      90.811     102.246
  H     -177.102      93.303     102.906
  H     -177.960      91.945     102.219
  H     -177.966      92.198     103.948

 6  7  8  9  10  11  12  13  14  15  16  26  30  31  32  33  35 0
 6-311+G(2d,p)
 ****
 37  38 0
 6-311+G(2d,p)
 ****
 1  2  3  4  5  17  18  19  20  21  22  23  24  25 0
 3-21G
 ****
 27  28  29  34  36  39  40  41  42  43  44  45  46 0
 3-21G
 ****


