%nproc=1
%NoSave
%Mem=1900MB
#P OB98/GEN NMR

erre ene a

0 1
  C     -125.054       8.632     187.071
  O     -125.094       7.832     185.900
  P     -123.797       6.941     185.573
  C     -121.337       7.425     184.860
  O     -122.625       7.956     185.162
  C     -120.496       8.475     184.137
  O     -121.038       8.730     182.826
  C     -120.445       9.833     184.826
  O     -119.581       9.806     185.952
  C     -119.966      10.712     183.675
  O     -118.547      10.565     183.501
  C     -120.711      10.101     182.475
  N     -122.685      14.591     180.986
  C     -121.414      14.211     181.257
  N     -120.972      13.002     181.672
  C     -121.994      12.138     181.788
  C     -123.337      12.389     181.567
  C     -123.676      13.683     181.143
  N     -124.972      14.071     180.867
  N     -124.094      11.261     181.812
  C     -123.219      10.343     182.168
  N     -121.937      10.816     182.154
  O     -124.179       6.234     184.193
  O     -123.437       5.943     186.635
  H     -118.388       9.668     183.144
  H     -123.798       5.339     184.141
  H     -120.653      14.974     181.128
  H     -123.466       9.321     182.437
  H     -120.096      10.074     181.566
  H     -120.171      11.775     183.833
  H     -121.452      10.139     185.139
  H     -119.480       8.070     184.019
  H     -121.445       6.549     184.212
  H     -125.143      15.052     180.713
  H     -125.722      13.439     181.120
  H     -120.856       7.108     185.792
  P     -119.880      10.851     187.134
  C     -120.057      13.418     187.104
  O     -119.481      12.274     186.498
  O     -118.665      10.564     188.136
  O     -121.249      10.764     187.722
  H     -117.811      10.539     187.674
  H     -119.662      14.308     186.613
  H     -119.800      13.452     188.167
  H     -121.145      13.395     186.982
  H     -125.974       9.169     187.168
  H     -124.242       9.325     187.002
  H     -124.916       8.005     187.927

 3  4  5  6  7  8  9  10  11  12  22  25  29  30  31  32 0
 6-311+G(2d,p)
 ****
 33  36  37 0
 6-311+G(2d,p)
 ****
 1  2  13  14  15  16  17  18  19  20  21  23  24  26 0
 3-21G
 ****
 27  28  34  35  38  39  40  41  42  43  44  45  46  47  48 0
 3-21G
 ****


