%nproc=1
%NoSave
%Mem=1900MB
#P OB98/GEN NMR

erre ene a

0 1
  C       74.846      16.676      13.396
  O       74.948      17.436      14.583
  H       73.874      16.878      12.938
  H       74.905      15.611      13.630
  H       75.632      16.950      12.689
  P       76.334      17.438      15.386
  C       75.844      19.800      16.301
  O       76.168      18.455      16.619
  C       74.328      19.974      16.163
  O       73.699      19.550      17.400
  C       73.896      21.417      15.889
  O       72.787      21.411      14.991
  C       73.455      21.917      17.250
  O       72.501      22.973      17.155
  C       72.899      20.646      17.887
  N       71.693      23.442      21.918
  C       71.415      23.641      20.581
  N       70.729      24.760      20.264
  N       71.779      22.817      19.634
  C       72.439      21.727      20.097
  C       72.776      21.417      21.394
  C       72.384      22.349      22.429
  O       72.616      22.234      23.628
  N       73.463      20.231      21.459
  C       73.543      19.828      20.205
  N       72.948      20.707      19.339
  O       77.550      17.671      14.546
  O       76.380      16.009      16.098
  H       73.008      23.808      17.052
  H       77.007      15.414      15.649
  H       71.399      24.114      22.604
  H       74.021      18.916      19.870
  H       71.854      20.462      17.611
  H       74.323      22.290      17.808
  H       70.396      25.426      20.944
  H       74.704      22.017      15.469
  H       70.485      24.915      19.294
  H       73.971      19.300      15.376
  H       76.331      20.057      15.355
  H       76.228      20.460      17.087
  P       72.828      22.356      13.695
  C       71.008      20.799      12.766
  O       71.479      22.136      12.852
  O       74.087      22.293      12.897
  O       72.617      23.820      14.317
  H       73.135      24.462      13.793
  H       70.110      20.774      12.185
  H       70.807      20.428      13.749
  H       71.752      20.188      12.299

 6  7  8  9  10  11  12  13  14  15  26  29  33  34 0
 6-311+G(2d,p)
 ****
 36  38  39  40  41 0
 6-311+G(2d,p)
 ****
 1  2  3  4  5  16  17  18  19  20  21  22  23  24  25 0
 3-21G
 ****
 27  28  30  31  32  35  37  42  43  44  45  46  47 0
 3-21G
 ****
 48  49 0
 3-21G
 ****


