%nproc=1
%NoSave
%Mem=1900MB
#P OB98/GEN NMR

erre ene a

0 1
  C      345.133    -178.722     -72.456
  O      346.501    -179.045     -72.612
  H      344.836    -178.944     -71.428
  H      344.521    -179.320     -73.138
  H      344.977    -177.658     -72.650
  P      347.129    -178.826     -74.072
  C      346.261    -181.166     -74.710
  O      346.256    -179.781     -75.027
  C      345.639    -181.977     -75.850
  O      344.215    -181.703     -75.887
  C      346.216    -181.635     -77.225
  O      346.319    -182.827     -78.000
  C      345.166    -180.723     -77.836
  O      345.190    -180.738     -79.259
  C      343.881    -181.271     -77.217
  N      340.711    -178.483     -80.080
  C      341.543    -179.501     -80.385
  N      342.343    -180.201     -79.554
  C      342.188    -179.786     -78.284
  C      341.385    -178.761     -77.822
  C      340.620    -178.082     -78.789
  N      339.788    -177.028     -78.492
  N      341.532    -178.605     -76.457
  C      342.403    -179.532     -76.098
  N      342.841    -180.259     -77.173
  O      348.607    -178.999     -74.173
  O      346.582    -177.370     -74.446
  H      346.046    -180.369     -79.558
  H      345.641    -177.272     -74.209
  H      341.576    -179.786     -81.433
  H      342.756    -179.704     -75.089
  H      343.481    -182.127     -77.774
  H      345.343    -179.689     -77.508
  H      347.191    -181.150     -77.162
  H      345.751    -183.043     -75.623
  H      345.699    -181.345     -73.786
  H      339.265    -176.610     -79.245
  H      339.694    -176.729     -77.534
  H      347.299    -181.471     -74.552
  P      347.585    -183.784     -77.765
  C      348.923    -183.328     -79.927
  O      348.855    -183.148     -78.515
  O      347.357    -185.238     -78.009
  O      347.935    -183.516     -76.221
  H      348.222    -184.356     -75.812
  H      349.809    -182.861     -80.304
  H      348.064    -182.884     -80.385
  H      348.947    -184.374     -80.153

 6  7  8  9  10  11  12  13  14  15  25  28  32  33  34  35 0
 6-311+G(2d,p)
 ****
 36  39  40 0
 6-311+G(2d,p)
 ****
 1  2  3  4  5  16  17  18  19  20  21  22  23  24 0
 3-21G
 ****
 26  27  29  30  31  37  38  41  42  43  44  45  46  47 0
 3-21G
 ****
 48 0
 3-21G
 ****


