%nproc=1
%NoSave
%Mem=1900MB
#P OB98/GEN NMR

erre ene a

0 1
  C     -302.702    -221.246     136.270
  O     -302.677    -221.080     137.701
  P     -303.330    -219.759     138.348
  C     -302.549    -217.314     138.894
  O     -302.210    -218.608     138.411
  C     -301.386    -216.338     138.671
  O     -300.260    -216.692     139.501
  C     -300.846    -216.327     137.244
  O     -301.688    -215.602     136.363
  C     -299.481    -215.675     137.455
  O     -299.599    -214.243     137.497
  C     -299.068    -216.235     138.832
  N     -298.061    -217.289     138.741
  C     -296.837    -217.030     139.345
  O     -296.567    -215.961     139.899
  N     -295.915    -218.035     139.278
  C     -296.062    -219.222     138.608
  O     -295.189    -220.079     138.572
  C     -297.346    -219.401     137.915
  C     -298.272    -218.436     138.009
  O     -303.462    -220.172     139.894
  O     -304.656    -219.348     137.794
  H     -300.311    -214.002     136.863
  H     -304.205    -219.684     140.298
  H     -295.030    -217.888     139.744
  H     -297.504    -220.321     137.357
  H     -299.223    -218.558     137.501
  H     -298.673    -215.421     139.459
  H     -298.779    -215.915     136.652
  H     -300.697    -217.357     136.887
  H     -301.726    -215.333     138.966
  H     -302.773    -217.380     139.961
  H     -303.455    -216.967     138.376
  P     -302.549    -216.466     135.319
  C     -301.869    -218.040     133.335
  O     -301.471    -217.077     134.291
  O     -303.291    -215.304     134.496
  O     -303.466    -217.454     135.973
  H     -302.738    -214.505     134.413
  H     -302.897    -217.871     132.995
  H     -301.792    -219.043     133.778
  H     -301.201    -217.979     132.476
  H     -302.230    -222.170     136.010
  H     -302.178    -220.435     135.808
  H     -303.716    -221.256     135.930

 3  4  5  6  7  8  9  10  11  12  13  23  28  29  30  31  32 0
 6-311+G(2d,p)
 ****
 33  34 0
 6-311+G(2d,p)
 ****
 1  2  14  15  16  17  18  19  20  21  22  24  25  26 0
 3-21G
 ****
 27  35  36  37  38  39  40  41  42  43  44  45 0
 3-21G
 ****


