%nproc=1
%NoSave
%Mem=1900MB
#P OB98/GEN NMR

erre ene a

0 1
  C      -45.380    -222.554      99.559
  O      -44.969    -221.230      99.944
  P      -45.141    -220.772     101.475
  C      -45.303    -222.964     102.899
  O      -44.495    -221.896     102.421
  C      -44.476    -223.898     103.783
  O      -43.421    -224.523     103.015
  C      -43.764    -223.205     104.940
  O      -44.653    -222.903     106.002
  C      -42.708    -224.243     105.307
  O      -43.261    -225.257     106.162
  C      -42.345    -224.831     103.930
  N      -41.063    -224.342     103.427
  C      -39.928    -225.019     103.865
  O      -39.965    -225.942     104.675
  N      -38.735    -224.572     103.365
  C      -38.566    -223.495     102.540
  O      -37.467    -223.129     102.139
  C      -39.793    -222.770     102.176
  C      -40.964    -223.218     102.633
  O      -46.709    -221.000     101.717
  O      -44.759    -219.361     101.778
  H      -43.481    -224.823     107.008
  H      -47.027    -220.382     102.403
  H      -37.905    -225.066     103.643
  H      -39.698    -221.898     101.542
  H      -41.882    -222.693     102.373
  H      -42.301    -225.925     103.986
  H      -41.858    -223.801     105.837
  H      -43.267    -222.298     104.578
  H      -45.138    -224.691     104.159
  H      -45.692    -223.529     102.046
  H      -46.148    -222.550     103.460
  P      -45.204    -221.395     106.071
  C      -47.431    -220.485     105.042
  O      -46.279    -221.285     104.883
  O      -43.926    -220.580     105.555
  O      -45.681    -221.005     107.431
  H      -43.418    -221.079     104.888
  H      -47.232    -219.608     105.663
  H      -48.224    -221.083     105.503
  H      -47.766    -220.148     104.057
  H      -45.198    -222.694      98.514
  H      -46.424    -222.675      99.758
  H      -44.824    -223.277     100.118

 3  4  5  6  7  8  9  10  11  12  13  23  28  29  30  31  32 0
 6-311+G(2d,p)
 ****
 33  34 0
 6-311+G(2d,p)
 ****
 1  2  14  15  16  17  18  19  20  21  22  24  25  26 0
 3-21G
 ****
 27  35  36  37  38  39  40  41  42  43  44  45 0
 3-21G
 ****


