%nproc=1
%NoSave
%Mem=1900MB
#P OB98/GEN NMR

erre ene a

0 1
  C       89.119      32.270     -53.874
  O       90.318      31.508     -53.659
  P       91.712      32.154     -54.118
  C       91.196      31.246     -56.500
  O       91.675      32.328     -55.711
  C       91.826      31.283     -57.896
  O       93.210      30.855     -57.867
  C       91.131      30.383     -58.910
  O       89.989      31.007     -59.473
  C       92.217      30.237     -59.966
  O       92.233      31.410     -60.815
  C       93.492      30.175     -59.113
  N       96.890      26.604     -60.249
  C       96.767      27.892     -60.730
  N       97.686      28.293     -61.632
  N       95.822      28.718     -60.346
  C       94.983      28.184     -59.424
  C       95.000      26.924     -58.884
  C       96.048      26.017     -59.321
  O       96.194      24.851     -58.946
  N       93.985      26.746     -57.984
  C       93.363      27.907     -57.965
  N       93.917      28.811     -58.841
  O       92.745      30.949     -53.910
  O       92.110      33.367     -53.341
  H       91.377      31.419     -61.285
  H       93.635      31.307     -53.733
  H       97.632      26.005     -60.583
  H       92.502      28.142     -57.348
  H       94.339      30.686     -59.586
  H       92.050      29.380     -60.618
  H       98.465      27.731     -61.929
  H       90.895      29.404     -58.471
  H       97.630      29.252     -61.963
  H       91.793      32.323     -58.258
  H       90.105      31.293     -56.583
  H       91.412      30.304     -55.986
  P       88.543      30.566     -58.928
  C       87.831      29.692     -61.264
  O       88.039      29.395     -59.902
  O       87.619      31.814     -59.307
  O       88.499      30.266     -57.459
  H       86.905      31.916     -58.643
  H       87.656      28.753     -61.806
  H       88.714      30.178     -61.698
  H       86.955      30.338     -61.383
  H       88.275      31.715     -53.520
  H       89.004      32.466     -54.920
  H       89.185      33.196     -53.342

 3  4  5  6  7  8  9  10  11  12  23  26  30  31 0
 6-311+G(2d,p)
 ****
 33  35  36  37  38 0
 6-311+G(2d,p)
 ****
 1  2  13  14  15  16  17  18  19  20  21  22  24  25 0
 3-21G
 ****
 27  28  29  32  34  39  40  41  42  43  44  45  46  47  48  49 0
 3-21G
 ****


