%nproc=1
%NoSave
%Mem=1900MB
#P OB98/GEN NMR

erre ene a

0 1
  C      -81.517    -869.201    -193.820
  O      -82.709    -869.148    -194.586
  P      -84.098    -869.268    -193.783
  C      -84.992    -866.974    -194.641
  O      -84.600    -867.766    -193.534
  C      -84.255    -865.630    -194.604
  O      -82.825    -865.845    -194.572
  C      -84.523    -864.730    -195.803
  O      -85.744    -864.032    -195.638
  C      -83.293    -863.833    -195.790
  O      -83.440    -862.768    -194.828
  C      -82.190    -864.809    -195.363
  N      -78.150    -864.372    -198.381
  C      -78.673    -863.487    -197.459
  N      -77.994    -862.333    -197.286
  N      -79.759    -863.705    -196.766
  C      -80.340    -864.893    -197.056
  C      -79.935    -865.852    -197.957
  C      -78.700    -865.616    -198.675
  O      -78.145    -866.417    -199.427
  N      -80.798    -866.916    -197.984
  C      -81.708    -866.618    -197.080
  N      -81.465    -865.411    -196.474
  O      -83.638    -869.768    -192.336
  O      -85.120    -870.162    -194.406
  H      -84.283    -862.312    -194.978
  H      -83.757    -870.738    -192.254
  H      -77.300    -864.161    -198.865
  H      -82.546    -867.243    -196.816
  H      -81.441    -864.329    -194.721
  H      -83.127    -863.355    -196.757
  H      -77.160    -862.081    -197.795
  H      -84.538    -865.319    -196.725
  H      -78.354    -861.667    -196.614
  H      -84.531    -865.122    -193.671
  H      -86.073    -866.786    -194.587
  H      -84.774    -867.505    -195.573
  P      -86.986    -864.478    -196.548
  C      -88.431    -865.939    -194.954
  O      -87.483    -865.901    -196.012
  O      -86.307    -864.819    -197.959
  O      -88.053    -863.443    -196.696
  H      -86.901    -864.551    -198.681
  H      -89.029    -866.841    -195.058
  H      -89.088    -865.067    -194.975
  H      -87.898    -865.968    -193.998
  H      -80.671    -869.111    -194.469
  H      -81.469    -870.135    -193.299
  H      -81.511    -868.398    -193.113

 3  4  5  6  7  8  9  10  11  12  23  26  30  31 0
 6-311+G(2d,p)
 ****
 33  35  36  37  38 0
 6-311+G(2d,p)
 ****
 1  2  13  14  15  16  17  18  19  20  21  22  24  25 0
 3-21G
 ****
 27  28  29  32  34  39  40  41  42  43  44  45  46  47  48  49 0
 3-21G
 ****


