%nproc=1
%NoSave
%Mem=1900MB
#P OB98/GEN NMR

erre ene a

0 1
  C     -303.763    -875.470     349.480
  O     -303.133    -876.212     350.511
  H     -303.326    -874.469     349.449
  H     -304.835    -875.380     349.688
  H     -303.608    -875.955     348.514
  P     -303.633    -877.724     350.709
  C     -301.173    -878.603     350.650
  O     -302.399    -878.513     351.360
  C     -299.987    -878.523     351.605
  O     -299.894    -877.156     352.122
  C     -300.095    -879.454     352.827
  O     -298.763    -879.796     353.236
  C     -300.732    -878.524     353.860
  O     -300.627    -879.069     355.156
  C     -299.947    -877.244     353.560
  N     -299.433    -873.517     357.028
  C     -298.615    -874.535     356.664
  N     -298.813    -875.473     355.733
  C     -299.998    -875.295     355.108
  C     -300.934    -874.308     355.363
  C     -300.621    -873.385     356.378
  N     -301.455    -872.360     356.753
  N     -302.032    -874.446     354.528
  C     -301.762    -875.501     353.786
  N     -300.546    -876.051     354.119
  O     -303.697    -878.288     349.210
  O     -304.933    -877.886     351.426
  H     -301.150    -879.893     355.229
  H     -304.596    -878.206     348.864
  H     -297.678    -874.593     357.212
  H     -302.399    -875.909     353.021
  H     -298.917    -877.307     353.938
  H     -301.799    -878.390     353.656
  H     -300.668    -880.356     352.624
  H     -299.066    -878.704     351.052
  H     -301.137    -877.781     349.928
  H     -301.141    -879.556     350.103
  H     -301.159    -871.750     357.498
  H     -302.348    -872.260     356.289
  P     -298.533    -881.166     354.052
  C     -297.140    -882.622     352.384
  O     -297.155    -881.830     353.567
  O     -299.624    -882.134     353.393
  O     -298.732    -881.085     355.541
  H     -299.903    -882.821     354.048
  H     -296.148    -882.984     352.209
  H     -297.454    -882.027     351.552
  H     -297.806    -883.451     352.501

 6  7  8  9  10  11  12  13  14  15  25  28  32  33  34  35 0
 6-311+G(2d,p)
 ****
 36  37  40 0
 6-311+G(2d,p)
 ****
 1  2  3  4  5  16  17  18  19  20  21  22  23  24 0
 3-21G
 ****
 26  27  29  30  31  38  39 41  42  43  44  45  46  47  48 0
 3-21G
 ****


