%nproc=1
%NoSave
%Mem=1900MB
#P OB98/GEN NMR

erre ene a

0 1
  C     -140.655    -174.129    -353.986
  O     -141.242    -175.272    -354.598
  P     -142.734    -175.119    -355.178
  C     -143.319    -177.007    -353.496
  O     -143.699    -175.763    -354.067
  C     -143.597    -177.018    -351.995
  O     -142.770    -176.042    -351.328
  C     -145.030    -176.668    -351.613
  O     -145.906    -177.779    -351.730
  C     -144.859    -176.278    -350.156
  O     -144.763    -177.464    -349.344
  C     -143.506    -175.547    -350.177
  N     -141.810    -171.054    -348.421
  C     -141.529    -172.323    -348.064
  N     -142.029    -173.472    -348.570
  C     -142.947    -173.210    -349.525
  C     -143.363    -171.962    -349.963
  C     -142.745    -170.841    -349.380
  N     -143.012    -169.543    -349.767
  N     -144.315    -172.091    -350.951
  C     -144.463    -173.392    -351.110
  N     -143.650    -174.106    -350.273
  O     -142.770    -176.191    -356.369
  O     -143.089    -173.747    -355.646
  H     -145.617    -177.935    -349.424
  H     -143.461    -175.951    -357.017
  H     -140.797    -172.438    -347.270
  H     -145.144    -173.855    -351.815
  H     -142.902    -175.763    -349.289
  H     -145.696    -175.686    -349.770
  H     -145.392    -175.799    -352.184
  H     -143.331    -178.010    -351.605
  H     -142.247    -177.169    -353.659
  H     -142.405    -168.815    -349.437
  H     -143.559    -169.405    -350.611
  H     -143.876    -177.814    -353.996
  P     -147.056    -177.683    -352.850
  C     -148.903    -178.061    -351.056
  O     -148.370    -177.214    -352.058
  O     -147.346    -179.212    -353.206
  O     -146.682    -176.873    -354.048
  H     -147.701    -179.290    -354.112
  H     -149.578    -177.472    -350.423
  H     -148.109    -178.472    -350.423
  H     -149.471    -178.874    -351.516
  H     -139.669    -174.372    -353.648
  H     -141.253    -173.824    -353.153
  H     -140.602    -173.331    -354.697

 3  4  5  6  7  8  9  10  11  12  22  25  29  30  31  32 0
 6-311+G(2d,p)
 ****
 33  36  37 0
 6-311+G(2d,p)
 ****
 1  2  13  14  15  16  17  18  19  20  21  23  24  26 0
 3-21G
 ****
 27  28  34  35  38  39  40  41  42  43  44  45  46  47  48 0
 3-21G
 ****


