%nproc=1
%NoSave
%Mem=1900MB
#P OB98/GEN NMR

erre ene a

0 1
  C     -754.384     595.830    -341.429
  O     -753.983     595.875    -340.073
  H     -754.841     594.858    -341.628
  H     -753.520     595.954    -342.084
  H     -755.121     596.613    -341.630
  P     -753.185     597.188    -339.609
  C     -750.899     596.037    -339.096
  O     -752.087     596.615    -338.576
  C     -750.064     595.455    -337.958
  O     -749.615     596.507    -337.069
  C     -750.803     594.463    -337.071
  O     -750.935     593.178    -337.648
  C     -749.877     594.448    -335.868
  O     -748.693     593.686    -336.181
  C     -749.556     595.950    -335.729
  N     -750.480     596.656    -334.837
  C     -750.575     596.179    -333.518
  O     -749.906     595.211    -333.153
  N     -751.455     596.791    -332.660
  C     -752.161     597.798    -333.065
  N     -753.018     598.356    -332.168
  C     -752.090     598.340    -334.435
  C     -751.239     597.729    -335.254
  O     -754.218     597.929    -338.639
  O     -752.635     598.041    -340.700
  H     -748.954     592.749    -336.150
  H     -753.770     598.682    -338.180
  H     -752.713     599.174    -334.725
  H     -751.128     598.072    -336.284
  H     -748.533     596.101    -335.359
  H     -750.322     593.993    -334.982
  H     -751.778     594.855    -336.759
  H     -749.167     595.002    -338.402
  H     -753.090     597.930    -331.253
  H     -750.336     596.818    -339.621
  H     -753.719     599.045    -332.422
  H     -751.150     595.242    -339.805
  P     -752.421     592.588    -337.806
  C     -751.838     590.394    -336.543
  O     -752.300     590.993    -337.739
  O     -752.766     592.872    -339.340
  O     -753.442     593.193    -336.883
  H     -753.722     593.067    -339.454
  H     -751.816     589.331    -336.662
  H     -752.496     590.649    -335.739
  H     -750.853     590.749    -336.324

 6  7  8  9  10  11  12  13  14  15  16  26  30  31  32  33  35 0
 6-311+G(2d,p)
 ****
 37  38 0
 6-311+G(2d,p)
 ****
 1  2  3  4  5  17  18  19  20  21  22  23  24  25 0
 3-21G
 ****
 27  28  29  34  36  39  40  41  42  43  44  45  46 0
 3-21G
 ****


