%nproc=1
%NoSave
%Mem=1900MB
#P OB98/GEN NMR

erre ene a

0 1
  C     -438.618     224.499     352.427
  O     -439.228     225.793     352.479
  P     -440.144     226.247     351.243
  C     -441.647     224.136     350.960
  O     -441.563     225.502     351.355
  C     -443.095     223.647     351.043
  O     -443.577     223.646     352.409
  C     -444.080     224.504     350.268
  O     -444.090     224.170     348.891
  C     -445.398     224.100     350.919
  O     -445.849     222.846     350.376
  C     -444.992     223.935     352.390
  N     -448.583     226.680     354.799
  C     -448.660     225.570     354.039
  N     -447.662     224.905     353.415
  C     -446.479     225.492     353.655
  C     -446.246     226.629     354.414
  C     -447.358     227.237     355.007
  N     -447.276     228.370     355.786
  N     -444.903     226.945     354.425
  C     -444.332     226.001     353.699
  N     -445.248     225.104     353.203
  O     -439.447     225.524     349.993
  O     -440.211     227.727     351.047
  H     -445.174     222.177     350.601
  H     -439.523     226.082     349.198
  H     -449.656     225.160     353.911
  H     -443.268     225.918     353.502
  H     -445.511     223.087     352.869
  H     -446.193     224.828     350.743
  H     -443.893     225.574     350.435
  H     -443.127     222.613     350.667
  H     -441.001     223.524     351.593
  H     -448.119     228.731     356.197
  H     -446.365     228.777     355.957
  H     -441.260     224.041     349.936
  P     -444.002     225.377     347.841
  C     -441.786     224.467     346.826
  O     -443.141     224.821     346.606
  O     -443.016     226.416     348.566
  O     -445.317     225.999     347.500
  H     -443.243     227.327     348.304
  H     -441.454     223.836     345.994
  H     -441.672     223.909     347.757
  H     -441.166     225.369     346.859
  H     -438.043     224.340     353.315
  H     -437.978     224.441     351.572
  H     -439.378     223.749     352.355

 3  4  5  6  7  8  9  10  11  12  22  25  29  30  31  32 0
 6-311+G(2d,p)
 ****
 33  36  37 0
 6-311+G(2d,p)
 ****
 1  2  13  14  15  16  17  18  19  20  21  23  24  26 0
 3-21G
 ****
 27  28  34  35  38  39  40  41  42  43  44  45  46  47  48 0
 3-21G
 ****


