%nproc=1
%NoSave
%Mem=1900MB
#P OB98/GEN NMR

erre ene a

0 1
  C      240.000     352.812     278.891
  O      240.113     353.911     279.770
  H      240.557     351.974     279.307
  H      240.415     353.057     277.910
  H      238.949     352.511     278.783
  P      239.429     355.302     279.352
  C      237.933     355.263     281.459
  O      238.905     355.988     280.707
  C      238.272     355.318     282.954
  O      239.290     354.321     283.218
  C      238.822     356.692     283.378
  O      238.126     357.260     284.485
  C      240.320     356.430     283.544
  O      240.970     357.297     284.447
  C      240.372     354.946     283.929
  N      241.643     354.298     283.612
  C      242.781     354.807     284.216
  O      242.810     355.747     285.016
  N      243.965     354.189     283.877
  C      244.096     353.134     283.021
  O      245.179     352.616     282.757
  C      242.854     352.654     282.396
  C      241.699     353.251     282.716
  O      238.414     355.225     278.264
  O      240.666     356.230     278.939
  H      241.925     357.078     284.436
  H      240.728     356.283     277.966
  H      244.802     354.541     284.317
  H      242.928     351.834     281.700
  H      240.765     352.922     282.275
  H      240.192     354.828     285.005
  H      240.801     356.563     282.564
  H      238.675     357.435     282.586
  H      237.380     355.048     283.526
  H      237.943     354.221     281.107
  H      236.939     355.684     281.287
  P      238.339     358.742     285.034
  C      235.789     359.328     285.242
  O      237.053     359.154     285.887
  O      238.841     359.726     284.034
  O      239.488     358.557     286.151
  H      240.022     359.384     286.147
  H      235.052     359.601     285.969
  H      235.501     358.413     284.769
  H      235.868     360.101     284.506

 6  7  8  9  10  11  12  13  14  15  16  26  31  32  33  34  35 0
 6-311+G(2d,p)
 ****
 36  37 0
 6-311+G(2d,p)
 ****
 1  2  3  4  5  17  18  19  20  21  22  23  24  25 0
 3-21G
 ****
 27  28  29  30  38  39  40  41  42  43  44  45 0
 3-21G
 ****


