%nproc=1
%NoSave
%Mem=1900MB
#P OB98/GEN NMR

erre ene a

0 1
  C     -300.336    -122.944    -899.254
  O     -299.834    -123.441    -898.029
  P     -298.829    -122.497    -897.203
  C     -298.089    -124.603    -895.847
  O     -297.695    -123.449    -896.574
  C     -297.111    -125.751    -896.136
  O     -297.281    -126.234    -897.494
  C     -295.647    -125.351    -896.021
  O     -295.229    -125.297    -894.666
  C     -294.962    -126.452    -896.823
  O     -294.759    -127.621    -896.025
  C     -295.992    -126.711    -897.947
  N     -295.614    -126.127    -899.219
  C     -295.024    -127.005    -900.140
  O     -294.817    -128.186    -899.898
  N     -294.661    -126.453    -901.339
  C     -294.744    -125.129    -901.674
  O     -294.343    -124.677    -902.743
  C     -295.345    -124.246    -900.653
  C     -295.742    -124.776    -899.492
  O     -299.690    -122.038    -895.925
  O     -298.301    -121.333    -897.969
  H     -294.008    -127.428    -895.426
  H     -299.453    -121.125    -895.679
  H     -294.254    -127.064    -902.020
  H     -295.444    -123.194    -900.901
  H     -296.169    -124.138    -898.724
  H     -296.112    -127.809    -898.091
  H     -293.980    -126.135    -897.195
  H     -295.489    -124.387    -896.519
  H     -297.341    -126.589    -895.451
  H     -299.104    -124.893    -896.149
  H     -298.102    -124.373    -894.776
  P     -294.224    -124.108    -894.258
  C     -294.153    -125.058    -891.822
  O     -293.435    -124.650    -892.976
  O     -295.262    -123.028    -893.687
  O     -293.400    -123.627    -895.399
  H     -296.037    -123.446    -893.252
  H     -295.100    -125.546    -892.082
  H     -294.350    -124.200    -891.186
  H     -293.538    -125.774    -891.271
  H     -300.987    -123.670    -899.693
  H     -299.522    -122.746    -899.919
  H     -300.879    -122.039    -899.076

 3  4  5  6  7  8  9  10  11  12  13  23  28  29  30  31  32 0
 6-311+G(2d,p)
 ****
 33  34 0
 6-311+G(2d,p)
 ****
 1  2  14  15  16  17  18  19  20  21  22  24  25  26 0
 3-21G
 ****
 27  35  36  37  38  39  40  41  42  43  44  45 0
 3-21G
 ****


