%nproc=1
%NoSave
%Mem=1900MB
#P OB98/GEN NMR

erre ene a

0 1
  C       56.857    -284.632    -269.395
  O       58.064    -283.963    -268.995
  P       57.992    -282.949    -267.755
  C       60.559    -283.139    -267.386
  O       59.435    -282.286    -267.550
  C       61.849    -282.314    -267.279
  O       62.180    -281.681    -268.531
  C       61.768    -281.188    -266.264
  O       62.005    -281.650    -264.938
  C       62.917    -280.295    -266.721
  O       64.167    -280.830    -266.239
  C       62.841    -280.430    -268.251
  N       63.024    -275.563    -269.850
  C       63.936    -276.335    -269.225
  N       63.801    -277.614    -268.812
  C       62.589    -278.094    -269.131
  C       61.561    -277.430    -269.776
  C       61.811    -276.094    -270.148
  N       60.885    -275.308    -270.794
  N       60.459    -278.248    -269.922
  C       60.822    -279.391    -269.379
  N       62.089    -279.351    -268.883
  O       57.857    -283.933    -266.496
  O       56.847    -281.992    -267.823
  H       64.086    -280.886    -265.262
  H       57.293    -283.519    -265.810
  H       64.890    -275.871    -269.017
  H       60.193    -280.279    -269.339
  H       63.830    -280.458    -268.711
  H       62.842    -279.279    -266.335
  H       60.816    -280.642    -266.355
  H       62.669    -282.999    -267.003
  H       60.635    -283.837    -268.224
  H       61.147    -274.372    -271.054
  H       59.990    -275.715    -271.028
  H       60.412    -283.755    -266.486
  P       60.766    -281.638    -263.926
  C       61.124    -283.576    -262.236
  O       61.318    -282.203    -262.541
  O       59.829    -282.806    -264.481
  O       60.040    -280.336    -263.865
  H       58.891    -282.611    -264.294
  H       61.810    -283.863    -261.435
  H       61.307    -284.208    -263.108
  H       60.088    -283.719    -261.891
  H       57.063    -285.270    -270.229
  H       56.122    -283.906    -269.674
  H       56.487    -285.218    -268.580

 3  4  5  6  7  8  9  10  11  12  22  25  29  30  31  32 0
 6-311+G(2d,p)
 ****
 33  36  37 0
 6-311+G(2d,p)
 ****
 1  2  13  14  15  16  17  18  19  20  21  23  24  26 0
 3-21G
 ****
 27  28  34  35  38  39  40  41  42  43  44  45  46  47  48 0
 3-21G
 ****


