%nproc=1
%NoSave
%Mem=1900MB
#P OB98/GEN NMR

erre ene a

0 1
  C     -293.338    -395.734     250.931
  O     -293.554    -395.057     252.157
  H     -293.146    -395.017     250.130
  H     -292.467    -396.387     251.040
  H     -294.213    -396.345     250.685
  P     -294.726    -393.964     252.169
  C     -294.151    -391.434     252.132
  O     -294.150    -392.666     251.418
  C     -292.918    -391.349     253.030
  O     -291.718    -391.572     252.254
  C     -292.713    -389.994     253.697
  O     -293.556    -389.830     254.829
  C     -291.245    -390.102     254.098
  O     -291.129    -390.863     255.314
  C     -290.639    -390.877     252.927
  N     -287.084    -390.766     249.213
  C     -287.545    -391.773     249.982
  N     -288.482    -391.731     250.952
  C     -288.981    -390.488     251.094
  C     -288.606    -389.356     250.377
  C     -287.601    -389.527     249.392
  N     -287.125    -388.484     248.627
  N     -289.330    -388.256     250.789
  C     -290.126    -388.714     251.731
  N     -289.946    -390.049     251.959
  O     -294.796    -393.509     253.703
  O     -296.059    -394.445     251.684
  H     -291.510    -390.318     256.027
  H     -295.725    -393.327     253.939
  H     -287.115    -392.750     249.792
  H     -290.853    -388.112     252.264
  H     -289.934    -391.651     253.277
  H     -290.782    -389.133     254.277
  H     -292.831    -389.171     252.977
  H     -292.997    -392.147     253.776
  H     -295.050    -391.372     252.755
  H     -286.561    -388.699     247.826
  H     -287.522    -387.569     248.778
  H     -294.154    -390.614     251.410
  P     -293.937    -388.322     255.258
  C     -292.680    -387.836     257.473
  O     -292.660    -387.763     256.046
  O     -295.029    -388.538     256.408
  O     -294.456    -387.463     254.143
  H     -295.608    -387.750     256.462
  H     -291.770    -387.430     257.864
  H     -292.774    -388.858     257.777
  H     -293.511    -387.275     257.847

 6  7  8  9  10  11  12  13  14  15  25  28  32  33  34  35 0
 6-311+G(2d,p)
 ****
 36  39  40 0
 6-311+G(2d,p)
 ****
 1  2  3  4  5  16  17  18  19  20  21  22  23  24 0
 3-21G
 ****
 26  27  29  30  31  37  38  41  42  43  44  45  46  47  48 0
 3-21G
 ****


