%nproc=1
%NoSave
%Mem=1900MB
#P OB98/GEN NMR

erre ene a

0 1
  C     -469.576     428.618     765.314
  O     -469.751     430.008     765.186
  H     -468.941     428.273     764.492
  H     -470.547     428.103     765.250
  H     -469.095     428.366     766.264
  P     -470.511     430.808     766.361
  C     -471.133     433.265     766.844
  O     -470.484     432.353     765.956
  C     -470.452     434.628     766.791
  O     -469.032     434.482     767.056
  C     -470.536     435.309     765.429
  O     -471.834     435.859     765.212
  C     -469.419     436.337     765.565
  O     -469.853     437.494     766.276
  C     -468.360     435.554     766.372
  N     -467.283     435.046     765.508
  C     -466.266     435.934     765.201
  O     -466.237     437.102     765.612
  N     -465.309     435.475     764.342
  C     -465.338     434.292     763.665
  O     -464.606     434.013     762.736
  C     -466.396     433.351     764.086
  C     -467.324     433.776     764.965
  O     -470.061     430.497     767.751
  O     -472.051     430.415     766.148
  H     -472.306     429.730     766.803
  H     -470.562     437.897     765.732
  H     -464.589     436.126     764.075
  H     -466.429     432.356     763.620
  H     -468.136     433.108     765.264
  H     -467.919     436.196     767.148
  H     -469.075     436.658     764.568
  H     -470.290     434.601     764.641
  H     -470.888     435.264     767.593
  H     -471.077     432.858     767.866
  H     -472.192     433.345     766.556
  P     -472.280     436.289     763.740
  C     -474.521     436.364     762.457
  O     -473.768     435.714     763.472
  O     -471.287     435.976     762.650
  O     -472.539     437.864     763.830
  H     -472.056     438.316     763.116
  H     -475.481     435.899     762.372
  H     -474.003     436.286     761.524
  H     -474.646     437.396     762.711

 6  7  8  9  10  11  12  13  14  15  16  27  31  32  33  34  35 0
 6-311+G(2d,p)
 ****
 36  37 0
 6-311+G(2d,p)
 ****
 1  2  3  4  5  17  18  19  20  21  22  23  24  25 0
 3-21G
 ****
 26  28  29  30  38  39  40  41  42  43  44  45 0
 3-21G
 ****


