%nproc=1
%NoSave
%Mem=1900MB
#P OB98/GEN NMR

erre ene a

0 1
  C      -45.633      26.886       0.530
  O      -46.253      26.762      -0.732
  P      -46.821      28.007      -1.557
  C      -47.050      28.555      -4.086
  O      -47.030      27.546      -3.083
  C      -47.448      28.017      -5.468
  O      -46.374      27.216      -6.000
  C      -48.660      27.089      -5.344
  O      -49.967      27.625      -5.299
  C      -48.443      26.012      -6.399
  O      -49.177      26.264      -7.598
  C      -46.938      26.076      -6.668
  N      -45.780      21.259      -7.743
  C      -46.311      22.231      -8.568
  N      -46.760      21.805      -9.769
  N      -46.410      23.491      -8.232
  C      -46.007      23.745      -6.965
  C      -45.452      22.869      -6.061
  C      -45.310      21.490      -6.459
  O      -44.922      20.582      -5.727
  N      -45.232      23.464      -4.845
  C      -45.691      24.689      -4.998
  N      -46.208      24.894      -6.255
  O      -46.190      29.334      -1.290
  O      -48.341      28.077      -1.015
  H      -48.868      27.111      -7.966
  H      -48.600      29.019      -0.994
  H      -45.801      20.288      -8.027
  H      -45.704      25.449      -4.226
  H      -46.743      26.213      -7.738
  H      -48.781      25.036      -6.031
  H      -46.832      20.825     -10.001
  H      -48.558      26.566      -4.384
  H      -47.306      22.451     -10.328
  H      -47.591      28.834      -6.181
  H      -46.052      29.004      -4.119
  H      -47.747      29.344      -3.794
  P      -51.326      26.803      -5.120
  C      -53.556      27.087      -3.900
  O      -52.215      27.531      -4.007
  O      -50.877      25.451      -4.389
  O      -52.045      26.490      -6.392
  H      -51.541      24.754      -4.548
  H      -54.136      27.832      -3.350
  H      -53.584      26.140      -3.352
  H      -54.003      26.948      -4.889
  H      -45.338      25.918       0.879
  H      -46.321      27.322       1.224
  H      -44.770      27.512       0.443

 3  4  5  6  7  8  9  10  11  12  23  26  30  31 0
 6-311+G(2d,p)
 ****
 33  35  36  37  38 0
 6-311+G(2d,p)
 ****
 1  2  13  14  15  16  17  18  19  20  21  22  24  25 0
 3-21G
 ****
 27  28  29  32  34  39  40  41  42  43  44  45  46  47  48  49 0
 3-21G
 ****


