%nproc=1
%NoSave
%Mem=1900MB
#P OB98/GEN NMR

erre ene a

0 1
  C     -547.425     285.008    -226.816
  O     -548.553     284.421    -226.200
  H     -546.793     284.213    -227.223
  H     -546.839     285.578    -226.091
  H     -547.736     285.660    -227.638
  P     -549.599     285.376    -225.452
  C     -549.830     284.117    -223.202
  O     -550.430     284.438    -224.453
  C     -550.793     283.311    -222.333
  O     -551.950     284.110    -222.004
  C     -551.332     282.053    -223.004
  O     -550.348     281.040    -223.022
  C     -552.545     281.771    -222.134
  O     -552.156     281.151    -220.895
  C     -553.076     283.203    -221.882
  N     -554.153     283.592    -222.784
  C     -554.913     284.703    -222.403
  O     -554.663     285.291    -221.349
  N     -555.942     285.107    -223.216
  C     -556.171     284.486    -224.335
  N     -557.199     284.938    -225.097
  C     -555.374     283.333    -224.793
  C     -554.402     282.933    -223.974
  O     -550.443     286.249    -226.331
  O     -548.687     286.243    -224.462
  H     -551.511     281.757    -220.481
  H     -548.438     287.089    -224.879
  H     -555.589     282.851    -225.733
  H     -553.767     282.090    -224.235
  H     -553.449     283.299    -220.852
  H     -553.258     281.101    -222.617
  H     -551.679     282.281    -224.018
  H     -550.281     283.068    -221.394
  H     -557.708     285.745    -224.749
  H     -549.580     285.064    -222.709
  H     -557.363     284.641    -226.048
  H     -548.901     283.555    -223.354
  P     -549.803     280.419    -224.400
  C     -551.296     278.329    -224.276
  O     -549.967     278.830    -224.256
  O     -548.446     280.881    -224.806
  O     -550.944     280.792    -225.459
  H     -550.872     281.745    -225.720
  H     -551.277     277.264    -224.173
  H     -551.761     278.589    -225.204
  H     -551.850     278.756    -223.467

 6  7  8  9  10  11  12  13  14  15  16  26  30  31  32  33  35 0
 6-311+G(2d,p)
 ****
 37  38 0
 6-311+G(2d,p)
 ****
 1  2  3  4  5  17  18  19  20  21  22  23  24  25 0
 3-21G
 ****
 27  28  29  34  36  39  40  41  42  43  44  45  46 0
 3-21G
 ****


