%nproc=1
%NoSave
%Mem=1900MB
#P OB98/GEN NMR

erre ene a

0 1
  C      967.891      85.296     267.786
  O      966.937      86.358     267.891
  P      967.307      87.599     268.841
  C      969.439      89.097     268.571
  O      968.285      88.520     267.968
  C      969.410      90.617     268.418
  O      969.275      90.986     267.015
  C      968.246      91.291     269.121
  O      968.453      91.340     270.531
  C      968.234      92.650     268.433
  O      969.240      93.511     268.995
  C      968.617      92.274     266.983
  N      967.481      92.268     266.073
  C      967.363      93.379     265.240
  O      968.149      94.328     265.260
  N      966.301      93.372     264.379
  C      965.339      92.401     264.291
  O      964.415      92.453     263.490
  C      965.483      91.281     265.231
  C      966.528      91.263     266.073
  O      968.264      86.893     269.908
  O      966.103      88.274     269.410
  H      968.819      86.187     269.520
  H      968.964      93.691     269.917
  H      966.209      94.167     263.753
  H      964.727      90.503     265.217
  H      966.651      90.443     266.773
  H      969.364      92.981     266.596
  H      967.275      93.164     268.530
  H      967.310      90.753     268.904
  H      970.364      91.019     268.787
  H      970.349      88.705     268.099
  H      969.467      88.809     269.629
  P      967.467      90.452     271.438
  C      967.485      87.859     271.764
  O      968.221      89.062     271.693
  O      966.318      90.087     270.385
  O      966.983      91.163     272.667
  H      966.672      89.822     269.519
  H      968.163      87.018     271.591
  H      966.688      87.826     271.017
  H      967.048      87.755     272.767
  H      967.515      84.543     267.125
  H      968.059      84.870     268.753
  H      968.812      85.681     267.401

 3  4  5  6  7  8  9  10  11  12  13  24  28  29  30  31  32 0
 6-311+G(2d,p)
 ****
 33  34 0
 6-311+G(2d,p)
 ****
 1  2  14  15  16  17  18  19  20  21  22  23  25  26  27 0
 3-21G
 ****
 35  36  37  38  39  40  41  42  43  44  45 0
 3-21G
 ****


