%nproc=1
%NoSave
%Mem=1900MB
#P OB98/GEN NMR

erre ene a

0 1
  C      -72.106     -75.926      77.076
  O      -71.595     -74.609      77.082
  H      -72.056     -76.326      78.091
  H      -71.500     -76.556      76.420
  H      -73.146     -75.931      76.743
  P      -71.660     -73.800      75.697
  C      -73.629     -72.932      74.251
  O      -73.171     -73.272      75.551
  C      -74.685     -71.831      74.321
  O      -75.884     -72.368      74.957
  C      -74.256     -70.593      75.124
  O      -74.837     -69.440      74.504
  C      -74.940     -70.805      76.464
  O      -75.101     -69.592      77.195
  C      -76.248     -71.445      76.002
  N      -80.129     -71.035      79.175
  C      -79.718     -70.206      78.150
  N      -80.453     -69.094      77.933
  N      -78.676     -70.446      77.400
  C      -78.053     -71.610      77.705
  C      -78.356     -72.512      78.696
  C      -79.497     -72.221      79.538
  O      -79.898     -72.906      80.474
  N      -77.464     -73.556      78.703
  C      -76.627     -73.284      77.718
  N      -76.943     -72.114      77.083
  O      -71.560     -74.966      74.606
  O      -70.601     -72.766      75.509
  H      -75.507     -69.812      78.059
  H      -70.632     -75.096      74.334
  H      -80.931     -70.796      79.732
  H      -75.782     -73.893      77.427
  H      -76.947     -70.710      75.582
  H      -74.359     -71.502      77.081
  H      -81.295     -68.869      78.440
  H      -73.173     -70.464      75.209
  H      -80.193     -68.497      77.157
  H      -74.969     -71.554      73.299
  H      -74.067     -73.821      73.785
  H      -72.780     -72.596      73.646
  P      -73.902     -68.540      73.564
  C      -72.492     -69.133      71.462
  O      -73.708     -69.310      72.172
  O      -72.463     -68.684      74.252
  O      -74.325     -67.112      73.464
  H      -71.927     -67.890      74.069
  H      -72.518     -69.709      70.561
  H      -71.674     -69.458      72.070
  H      -72.367     -68.098      71.220

 6  7  8  9  10  11  12  13  14  15  26  29  33  34 0
 6-311+G(2d,p)
 ****
 36  38  39  40  41 0
 6-311+G(2d,p)
 ****
 1  2  3  4  5  16  17  18  19  20  21  22  23  24  25 0
 3-21G
 ****
 27  28  30  31  32  35  37  42  43  44  45  46  47 0
 3-21G
 ****
 48  49 0
 3-21G
 ****


