%nproc=1
%NoSave
%Mem=1900MB
#P OB98/GEN NMR

erre ene a

0 1
  C     -446.347     208.813    -523.462
  O     -446.796     209.830    -522.592
  H     -445.629     209.244    -524.166
  H     -447.188     208.405    -524.031
  H     -445.854     208.013    -522.904
  P     -447.735     209.431    -521.354
  C     -446.591     210.907    -519.576
  O     -446.849     209.578    -520.026
  C     -445.343     210.920    -518.698
  O     -444.200     210.455    -519.454
  C     -444.956     212.310    -518.199
  O     -445.808     212.740    -517.148
  C     -443.509     212.084    -517.805
  O     -443.412     211.490    -516.506
  C     -443.032     211.095    -518.892
  N     -442.245     211.761    -519.933
  C     -440.885     211.908    -519.678
  O     -440.340     211.503    -518.651
  N     -440.175     212.604    -520.620
  C     -440.700     213.262    -521.693
  O     -440.068     214.067    -522.366
  C     -442.127     213.020    -521.945
  C     -442.826     212.303    -521.061
  O     -448.465     208.136    -521.491
  O     -448.753     210.669    -521.245
  H     -449.606     210.413    -521.638
  H     -443.787     210.582    -516.601
  H     -439.193     212.747    -520.419
  H     -442.575     213.463    -522.829
  H     -443.894     212.135    -521.215
  H     -442.419     210.301    -518.448
  H     -442.948     213.020    -517.789
  H     -444.996     213.025    -519.027
  H     -445.501     210.234    -517.860
  H     -447.452     211.247    -518.989
  H     -446.462     211.560    -520.443
  P     -446.864     213.913    -517.399
  C     -448.961     212.813    -516.403
  O     -448.316     213.263    -517.593
  O     -446.475     214.905    -518.453
  O     -446.988     214.627    -515.968
  H     -446.875     215.596    -516.088
  H     -449.917     212.400    -516.650
  H     -449.091     213.638    -515.734
  H     -448.359     212.063    -515.933

 6  7  8  9  10  11  12  13  14  15  16  27  31  32  33  34  35 0
 6-311+G(2d,p)
 ****
 36  37 0
 6-311+G(2d,p)
 ****
 1  2  3  4  5  17  18  19  20  21  22  23  24  25 0
 3-21G
 ****
 26  28  29  30  38  39  40  41  42  43  44  45 0
 3-21G
 ****


