%nproc=1
%NoSave
%Mem=1900MB
#P OB98/GEN NMR

erre ene a

0 1
  C      -96.660     328.917     -37.587
  O      -95.929     328.297     -36.550
  H      -97.726     328.767     -37.404
  H      -96.402     328.461     -38.547
  H      -96.452     329.989     -37.616
  P      -94.335     328.475     -36.579
  C      -93.718     326.088     -37.381
  O      -93.787     327.469     -37.706
  C      -93.326     325.263     -38.605
  O      -92.060     325.768     -39.127
  C      -93.141     323.762     -38.326
  O      -93.581     323.039     -39.484
  C      -91.632     323.621     -38.224
  O      -91.190     322.285     -38.454
  C      -91.195     324.627     -39.286
  N      -87.167     326.229     -41.842
  C      -88.464     326.000     -42.262
  N      -88.727     326.233     -43.565
  N      -89.415     325.580     -41.474
  C      -89.015     325.420     -40.188
  C      -87.765     325.605     -39.647
  C      -86.712     326.047     -40.539
  O      -85.541     326.248     -40.229
  N      -87.757     325.308     -38.308
  C      -88.997     324.947     -38.039
  N      -89.799     324.997     -39.149
  O      -93.879     327.788     -35.207
  O      -93.849     329.882     -36.689
  H      -90.222     322.260     -38.307
  H      -93.809     328.458     -34.501
  H      -86.466     326.540     -42.495
  H      -89.367     324.635     -37.072
  H      -91.319     324.240     -40.306
  H      -91.288     323.928     -37.228
  H      -88.059     326.602     -44.220
  H      -93.669     323.402     -37.439
  H      -89.684     326.112     -43.882
  H      -94.075     325.425     -39.390
  H      -94.700     325.756     -37.025
  H      -92.982     325.942     -36.581
  P      -94.885     322.120     -39.344
  C      -93.382     319.999     -39.261
  O      -94.448     320.732     -38.674
  O      -95.188     321.701     -40.861
  O      -96.055     322.805     -38.718
  H      -96.138     321.527     -40.972
  H      -93.214     319.103     -38.700
  H      -92.494     320.595     -39.255
  H      -93.636     319.746     -40.269

 6  7  8  9  10  11  12  13  14  15  26  29  33  34 0
 6-311+G(2d,p)
 ****
 36  38  39  40  41 0
 6-311+G(2d,p)
 ****
 1  2  3  4  5  16  17  18  19  20  21  22  23  24  25 0
 3-21G
 ****
 27  28  30  31  32  35  37  42  43  44  45  46  47 0
 3-21G
 ****
 48  49 0
 3-21G
 ****


