%nproc=1
%NoSave
%Mem=1900MB
#P OB98/GEN NMR

erre ene a

0 1
  C      399.923     142.663     279.595
  O      399.301     143.695     280.334
  H      399.280     142.401     278.753
  H      400.063     141.776     280.217
  H      400.888     143.003     279.207
  P      399.992     144.184     281.694
  C      398.991     142.359     283.228
  O      399.022     143.738     282.889
  C      398.056     142.112     284.421
  O      398.600     142.787     285.591
  C      396.627     142.641     284.211
  O      395.744     141.804     284.966
  C      396.727     144.019     284.840
  O      395.454     144.577     285.060
  C      397.588     143.704     286.064
  N      398.167     144.896     286.665
  C      397.426     145.496     287.685
  O      396.342     145.026     288.027
  N      397.920     146.633     288.274
  C      399.020     147.159     287.837
  N      399.445     148.295     288.453
  C      399.804     146.590     286.720
  C      399.328     145.466     286.187
  O      400.415     145.614     281.732
  O      401.247     143.201     281.863
  H      395.530     145.500     285.394
  H      402.069     143.676     281.637
  H      400.703     147.077     286.378
  H      399.829     144.971     285.364
  H      397.002     143.178     286.830
  H      397.256     144.708     284.174
  H      396.330     142.661     283.159
  H      398.051     141.037     284.647
  H      398.872     148.657     289.206
  H      400.011     142.061     283.487
  H      400.273     148.805     288.183
  H      398.658     141.765     282.372
  P      394.543     140.979     284.293
  C      393.059     143.085     284.429
  O      393.151     141.683     284.660
  O      394.583     139.514     284.579
  O      394.691     141.241     282.717
  H      394.366     140.457     282.233
  H      392.087     143.430     284.713
  H      393.220     143.287     283.391
  H      393.801     143.592     285.010

 6  7  8  9  10  11  12  13  14  15  16  26  30  31  32  33  35 0
 6-311+G(2d,p)
 ****
 37  38 0
 6-311+G(2d,p)
 ****
 1  2  3  4  5  17  18  19  20  21  22  23  24  25 0
 3-21G
 ****
 27  28  29  34  36  39  40  41  42  43  44  45  46 0
 3-21G
 ****


