%nproc=1
%NoSave
%Mem=1900MB
#P OB98/GEN NMR

erre ene a

0 1
  C     -375.955     -83.940     -66.757
  O     -374.784     -83.449     -67.406
  P     -373.557     -84.465     -67.604
  C     -373.315     -83.908     -70.133
  O     -372.681     -83.982     -68.871
  C     -372.358     -83.366     -71.204
  O     -372.363     -81.910     -71.213
  C     -370.904     -83.809     -71.017
  O     -370.288     -83.896     -72.301
  C     -370.293     -82.643     -70.259
  O     -368.870     -82.638     -70.347
  C     -371.005     -81.475     -70.952
  N     -368.858     -76.939     -70.380
  C     -368.591     -77.939     -71.293
  N     -367.636     -77.681     -72.216
  N     -369.208     -79.089     -71.308
  C     -370.166     -79.192     -70.351
  C     -370.517     -78.282     -69.377
  C     -369.808     -77.012     -69.371
  O     -369.991     -76.099     -68.572
  N     -371.522     -78.767     -68.575
  C     -371.764     -79.967     -69.051
  N     -371.002     -80.270     -70.146
  O     -374.273     -85.788     -68.138
  O     -372.781     -84.731     -66.354
  H     -368.626     -82.165     -71.179
  H     -374.268     -86.476     -67.448
  H     -368.343     -76.070     -70.406
  H     -372.480     -80.673     -68.638
  H     -370.538     -81.218     -71.919
  H     -370.574     -82.691     -69.198
  H     -367.160     -76.790     -72.294
  H     -370.780     -84.765     -70.486
  H     -367.460     -78.379     -72.924
  H     -372.718     -83.690     -72.194
  H     -374.195     -83.256     -70.075
  H     -373.690     -84.902     -70.401
  P     -369.590     -85.293     -72.681
  C     -370.202     -85.105     -75.205
  O     -369.186     -85.182     -74.230
  O     -370.813     -86.325     -72.690
  O     -368.493     -85.725     -71.760
  H     -370.488     -87.236     -72.521
  H     -370.289     -84.080     -75.546
  H     -371.176     -85.439     -74.809
  H     -369.937     -85.742     -76.048
  H     -376.683     -83.158     -66.696
  H     -375.704     -84.272     -65.771
  H     -376.357     -84.758     -67.317

 3  4  5  6  7  8  9  10  11  12  23  26  30  31 0
 6-311+G(2d,p)
 ****
 33  35  36  37  38 0
 6-311+G(2d,p)
 ****
 1  2  13  14  15  16  17  18  19  20  21  22  24  25 0
 3-21G
 ****
 27  28  29  32  34  39  40  41  42  43  44  45  46  47  48  49 0
 3-21G
 ****


