%nproc=1
%NoSave
%Mem=1900MB
#P OB98/GEN NMR

erre ene a

0 1
  C     -187.368    -122.380     -20.322
  O     -187.852    -121.386     -19.444
  H     -188.127    -123.162     -20.415
  H     -186.457    -122.823     -19.909
  H     -187.163    -121.970     -21.313
  P     -187.111    -119.966     -19.402
  C     -185.366    -120.598     -17.602
  O     -185.590    -120.237     -18.960
  C     -184.056    -119.994     -17.080
  O     -183.697    -120.635     -15.831
  C     -182.916    -120.261     -18.060
  O     -181.909    -119.254     -18.006
  C     -182.334    -121.573     -17.561
  O     -180.991    -121.791     -17.984
  C     -182.497    -121.403     -16.047
  N     -180.197    -124.655     -12.872
  C     -179.694    -123.519     -13.466
  N     -178.400    -123.217     -13.201
  N     -180.390    -122.752     -14.266
  C     -181.644    -123.215     -14.505
  C     -182.244    -124.341     -13.988
  C     -181.476    -125.159     -13.074
  O     -181.866    -126.189     -12.529
  N     -183.521    -124.493     -14.476
  C     -183.690    -123.467     -15.282
  N     -182.583    -122.653     -15.324
  O     -187.728    -119.254     -18.107
  O     -187.271    -119.116     -20.625
  H     -180.447    -121.062     -17.630
  H     -187.662    -118.284     -18.188
  H     -179.620    -125.203     -12.250
  H     -184.590    -123.265     -15.853
  H     -181.650    -120.836     -15.632
  H     -182.936    -122.397     -17.964
  H     -177.782    -123.863     -12.738
  H     -183.272    -120.350     -19.093
  H     -177.941    -122.570     -13.846
  H     -184.191    -118.928     -16.864
  H     -185.318    -121.692     -17.561
  H     -186.212    -120.282     -16.986
  P     -181.470    -118.562     -19.385
  C     -179.880    -120.415     -20.342
  O     -181.113    -119.729     -20.430
  O     -180.060    -117.894     -19.042
  O     -182.458    -117.562     -19.896
  H     -180.156    -116.927     -18.954
  H     -179.825    -121.150     -21.117
  H     -179.806    -120.895     -19.389
  H     -179.076    -119.718     -20.453

 6  7  8  9  10  11  12  13  14  15  26  29  33  34 0
 6-311+G(2d,p)
 ****
 36  38  39  40  41 0
 6-311+G(2d,p)
 ****
 1  2  3  4  5  16  17  18  19  20  21  22  23  24  25 0
 3-21G
 ****
 27  28  30  31  32  35  37  42  43  44  45  46  47 0
 3-21G
 ****
 48  49 0
 3-21G
 ****


