%nproc=1
%NoSave
%Mem=1900MB
#P OB98/GEN NMR

erre ene a

0 1
  C      301.126    -891.990    -159.667
  O      300.158    -893.000    -159.911
  P      298.903    -893.180    -158.941
  C      300.094    -893.880    -156.764
  O      299.278    -894.300    -157.843
  C      300.137    -894.950    -155.674
  O      298.897    -894.990    -154.949
  C      300.335    -896.360    -156.206
  O      301.669    -896.580    -156.651
  C      299.925    -897.180    -154.999
  O      300.986    -897.270    -154.045
  C      298.755    -896.340    -154.438
  N      297.449    -896.910    -154.744
  C      297.112    -898.080    -154.052
  O      297.920    -898.620    -153.310
  N      295.848    -898.600    -154.239
  C      295.064    -898.080    -155.126
  N      293.816    -898.610    -155.237
  C      295.458    -896.950    -155.983
  C      296.645    -896.390    -155.725
  O      297.594    -893.370    -159.611
  O      298.902    -891.830    -158.057
  H      298.001    -891.450    -158.072
  H      301.685    -897.830    -154.451
  H      294.793    -896.600    -156.769
  H      297.004    -895.550    -156.304
  H      298.851    -896.250    -153.340
  H      299.639    -898.220    -155.274
  H      299.640    -896.540    -157.035
  H      300.939    -894.680    -154.978
  H      293.578    -899.370    -154.612
  H      299.673    -892.950    -156.344
  H      293.045    -898.080    -155.637
  H      301.095    -893.660    -157.140
  P      301.860    -896.850    -158.219
  C      300.468    -899.030    -158.436
  O      301.740    -898.450    -158.453
  O      303.408    -896.530    -158.468
  O      300.993    -896.030    -159.119
  H      303.528    -896.120    -159.342
  H      300.535    -900.000    -158.945
  H      299.737    -898.420    -158.973
  H      300.151    -899.180    -157.404
  H      301.883    -892.031    -160.422
  H      301.571    -892.147    -158.707
  H      300.653    -891.030    -159.688

 3  4  5  6  7  8  9  10  11  12  13  24  27  28  29  30  32 0
 6-311+G(2d,p)
 ****
 34  35 0
 6-311+G(2d,p)
 ****
 1  2  14  15  16  17  18  19  20  21  22  23  25  26 0
 3-21G
 ****
 31  33  36  37  38  39  40  41  42  43  44  45  46 0
 3-21G
 ****


