%nproc=1
%NoSave
%Mem=1900MB
#P OB98/GEN NMR

erre ene a

0 1
  C      -61.436     -88.361    -616.363
  O      -60.145     -88.036    -616.869
  P      -59.464     -86.718    -616.241
  C      -60.020     -84.186    -616.120
  O      -60.367     -85.456    -616.660
  C      -60.935     -83.092    -616.679
  O      -60.608     -82.810    -618.082
  C      -62.437     -83.446    -616.635
  O      -63.147     -82.228    -616.383
  C      -62.694     -83.926    -618.053
  O      -64.075     -83.976    -618.386
  C      -61.846     -82.923    -618.834
  N      -63.994     -83.843    -623.372
  C      -64.516     -83.480    -622.176
  N      -63.872     -83.261    -621.017
  C      -62.555     -83.449    -621.159
  C      -61.866     -83.835    -622.302
  C      -62.647     -84.034    -623.454
  N      -62.132     -84.436    -624.669
  N      -60.514     -83.944    -622.050
  C      -60.387     -83.701    -620.753
  N      -61.586     -83.325    -620.197
  O      -58.125     -86.537    -617.102
  O      -59.193     -86.828    -614.777
  H      -64.481     -83.097    -618.240
  H      -57.351     -86.897    -616.610
  H      -65.594     -83.354    -622.152
  H      -59.485     -83.802    -620.181
  H      -62.302     -81.928    -618.865
  H      -62.294     -84.943    -618.165
  H      -62.693     -84.181    -615.858
  H      -60.756     -82.161    -616.108
  H      -58.976     -83.943    -616.360
  H      -62.768     -84.558    -625.434
  H      -61.143     -84.585    -624.775
  H      -60.093     -84.237    -615.022
  P      -64.233     -82.197    -615.201
  C      -66.682     -82.979    -615.033
  O      -65.611     -82.671    -615.909
  O      -64.489     -80.625    -615.059
  O      -63.842     -82.872    -613.919
  H      -64.655     -80.212    -615.927
  H      -67.563     -83.207    -615.633
  H      -66.897     -82.125    -614.375
  H      -66.430     -83.875    -614.445
  H      -61.795     -89.247    -616.844
  H      -62.109     -87.552    -616.557
  H      -61.374     -88.528    -615.308

 3  4  5  6  7  8  9  10  11  12  22  25  29  30  31  32 0
 6-311+G(2d,p)
 ****
 33  36  37 0
 6-311+G(2d,p)
 ****
 1  2  13  14  15  16  17  18  19  20  21  23  24  26 0
 3-21G
 ****
 27  28  34  35  38  39  40  41  42  43  44  45  46  47  48 0
 3-21G
 ****


