%nproc=1
%NoSave
%Mem=1900MB
#P OB98/GEN NMR

erre ene a

0 1
  C     -612.028      -5.151    -171.555
  O     -612.926      -6.074    -172.143
  H     -611.711      -5.542    -170.586
  H     -612.526      -4.191    -171.404
  H     -611.147      -5.020    -172.191
  P     -613.382      -5.778    -173.650
  C     -613.429      -8.389    -173.939
  O     -614.032      -7.132    -174.221
  C     -614.275      -9.515    -174.529
  O     -614.586      -9.269    -175.913
  C     -613.574     -10.865    -174.549
  O     -613.434     -11.431    -173.265
  C     -614.498     -11.641    -175.475
  O     -615.672     -12.086    -174.776
  C     -614.865     -10.558    -176.521
  N     -614.147     -10.732    -177.773
  C     -614.943     -10.964    -178.903
  O     -616.169     -11.002    -178.802
  N     -614.327     -11.178    -180.111
  C     -613.032     -11.134    -180.191
  N     -612.480     -11.365    -181.415
  C     -612.158     -10.865    -179.036
  C     -612.777     -10.682    -177.870
  O     -611.987      -5.700    -174.429
  O     -614.258      -4.583    -173.828
  H     -615.362     -12.447    -173.924
  H     -611.420      -6.478    -174.292
  H     -611.084     -10.831    -179.150
  H     -612.208     -10.481    -176.969
  H     -615.939     -10.581    -176.735
  H     -614.019     -12.529    -175.885
  H     -612.599     -10.778    -175.047
  H     -615.218      -9.563    -173.968
  H     -613.112     -11.565    -182.182
  H     -613.297      -8.528    -172.862
  H     -611.488     -11.387    -181.592
  H     -612.433      -8.386    -174.396
  P     -612.237     -12.443    -172.946
  C     -613.838     -13.203    -171.079
  O     -612.864     -13.610    -172.033
  O     -611.001     -11.815    -172.389
  O     -612.006     -13.195    -174.344
  H     -612.780     -13.681    -174.673
  H     -614.182     -14.057    -170.534
  H     -614.663     -12.747    -171.584
  H     -613.401     -12.499    -170.402

 6  7  8  9  10  11  12  13  14  15  16  26  30  31  32  33  35 0
 6-311+G(2d,p)
 ****
 37  38 0
 6-311+G(2d,p)
 ****
 1  2  3  4  5  17  18  19  20  21  22  23  24  25 0
 3-21G
 ****
 27  28  29  34  36  39  40  41  42  43  44  45  46 0
 3-21G
 ****


