%nproc=1
%NoSave
%Mem=1900MB
#P OB98/GEN NMR

erre ene a

0 1
  C     -424.013    -460.780     306.151
  O     -424.334    -459.407     306.038
  P     -425.142    -458.664     307.196
  C     -427.052    -457.980     305.626
  O     -426.037    -457.514     306.509
  C     -427.999    -456.848     305.222
  O     -428.825    -456.490     306.365
  C     -427.300    -455.560     304.747
  O     -428.140    -454.984     303.740
  C     -427.324    -454.686     305.995
  O     -427.172    -453.305     305.705
  C     -428.690    -455.071     306.559
  N     -431.193    -452.285     310.049
  C     -431.283    -452.331     308.703
  N     -430.561    -453.077     307.839
  C     -429.684    -453.845     308.508
  C     -429.453    -453.886     309.872
  C     -430.283    -453.076     310.669
  N     -430.226    -453.043     312.047
  N     -428.421    -454.762     310.167
  C     -428.030    -455.232     309.000
  N     -428.805    -454.752     307.970
  O     -424.321    -458.197     308.355
  O     -426.234    -459.738     307.668
  H     -427.817    -453.050     305.021
  H     -425.987    -460.107     308.535
  H     -432.028    -451.689     308.265
  H     -427.202    -455.913     308.836
  H     -429.518    -454.574     306.033
  H     -426.518    -454.981     306.667
  H     -426.288    -455.721     304.367
  H     -428.667    -457.231     304.448
  H     -427.619    -458.757     306.147
  H     -430.944    -452.525     312.522
  H     -429.749    -453.797     312.530
  H     -426.592    -458.425     304.736
  P     -427.488    -454.405     302.391
  C     -428.639    -452.126     302.677
  O     -428.480    -453.269     301.856
  O     -427.070    -455.429     301.393
  O     -426.233    -453.546     302.928
  H     -425.614    -453.381     302.191
  H     -429.339    -452.352     303.493
  H     -429.044    -451.307     302.078
  H     -427.674    -451.821     303.106
  H     -423.474    -461.093     305.281
  H     -424.914    -461.351     306.237
  H     -423.408    -460.935     307.020

 3  4  5  6  7  8  9  10  11  12  22  25  29  30  31  32 0
 6-311+G(2d,p)
 ****
 33  36  37 0
 6-311+G(2d,p)
 ****
 1  2  13  14  15  16  17  18  19  20  21  23  24  26 0
 3-21G
 ****
 27  28  34  35  38  39  40  41  42  43  44  45  46  47  48 0
 3-21G
 ****


