%nproc=1
%NoSave
%Mem=1900MB
#P OB98/GEN NMR

erre ene a

0 1
  C     -249.708     646.667     801.780
  O     -249.557     647.945     802.319
  P     -248.319     648.193     803.333
  C     -246.537     649.250     801.713
  O     -246.974     648.086     802.452
  C     -245.432     649.944     802.476
  O     -244.322     649.055     802.765
  C     -244.801     651.140     801.731
  O     -245.666     652.253     801.740
  C     -243.507     651.311     802.519
  O     -243.772     652.024     803.740
  C     -243.131     649.857     802.825
  N     -239.134     646.692     802.245
  C     -239.825     647.034     803.313
  N     -240.865     647.899     803.410
  C     -241.158     648.421     802.203
  C     -240.491     648.186     800.997
  C     -239.446     647.278     801.062
  N     -238.684     646.919     799.934
  N     -241.055     648.916     799.977
  C     -242.030     649.565     800.519
  N     -242.159     649.318     801.872
  O     -248.298     646.827     804.190
  O     -248.432     649.407     804.185
  H     -243.775     652.979     803.516
  H     -248.020     647.000     805.110
  H     -239.555     646.567     804.278
  H     -242.706     650.261     800.034
  H     -242.700     649.730     803.830
  H     -242.747     651.874     801.967
  H     -244.569     650.858     800.670
  H     -245.869     650.307     803.437
  H     -247.386     649.923     801.582
  H     -237.870     646.388     800.080
  H     -238.840     647.444     799.074
  H     -246.181     648.918     800.716
  P     -246.609     652.463     800.430
  C     -248.750     652.203     801.844
  O     -247.973     651.683     800.799
  O     -245.910     651.507     799.370
  O     -246.791     653.893     800.006
  H     -245.726     650.614     799.746
  H     -249.656     651.615     801.950
  H     -249.011     653.231     801.622
  H     -248.185     652.188     802.788
  H     -250.560     646.651     801.133
  H     -249.847     645.960     802.571
  H     -248.832     646.409     801.222

 3  4  5  6  7  8  9  10  11  12  22  25  29  30  31  32 0
 6-311+G(2d,p)
 ****
 33  36  37 0
 6-311+G(2d,p)
 ****
 1  2  13  14  15  16  17  18  19  20  21  23  24  26 0
 3-21G
 ****
 27  28  34  35  38  39  40  41  42  43  44  45  46  47  48 0
 3-21G
 ****


