%nproc=1
%NoSave
%Mem=1900MB
#P OB98/GEN NMR

erre ene a

0 1
  C     -898.180     547.559    -111.105
  O     -897.360     546.584    -111.767
  P     -896.160     547.094    -112.701
  C     -897.970     547.295    -114.535
  O     -896.620     546.934    -114.237
  C     -898.170     547.427    -116.041
  O     -897.320     548.459    -116.609
  C     -897.820     546.156    -116.809
  O     -898.830     545.179    -116.640
  C     -897.680     546.704    -118.229
  O     -898.950     546.836    -118.870
  C     -897.050     548.096    -117.972
  N     -895.630     548.151    -118.279
  C     -895.290     548.252    -119.628
  O     -896.170     548.250    -120.499
  N     -893.960     548.344    -119.967
  C     -893.050     548.328    -119.038
  N     -891.750     548.415    -119.445
  C     -893.370     548.207    -117.595
  C     -894.650     548.113    -117.302
  O     -894.810     546.532    -112.380
  O     -896.190     548.681    -112.492
  H     -898.770     547.300    -119.719
  H     -895.280     549.030    -112.600
  H     -892.570     548.207    -116.862
  H     -894.980     548.028    -116.262
  H     -897.560     548.852    -118.596
  H     -897.070     546.034    -118.858
  H     -896.860     545.773    -116.457
  H     -899.220     547.707    -116.234
  H     -891.560     548.485    -120.426
  H     -898.210     548.242    -114.034
  H     -890.980     548.461    -118.794
  H     -898.630     546.548    -114.110
  P     -898.710     544.207    -115.372
  C     -898.160     542.088    -116.774
  O     -899.050     542.719    -115.867
  O     -900.000     544.591    -114.489
  O     -897.450     544.356    -114.578
  H     -899.780     544.502    -113.548
  H     -898.340     541.011    -116.755
  H     -897.120     542.269    -116.492
  H     -898.340     542.470    -117.785
  H     -898.929     547.061    -110.525
  H     -898.651     548.184    -111.835
  H     -897.571     548.159    -110.461

 3  4  5  6  7  8  9  10  11  12  13  23  27  28  29  30  32 0
 6-311+G(2d,p)
 ****
 34  35 0
 6-311+G(2d,p)
 ****
 1  2  14  15  16  17  18  19  20  21  22  24  25  26 0
 3-21G
 ****
 31  33  36  37  38  39  40  41  42  43  44  45  46 0
 3-21G
 ****


