%nproc=1
%NoSave
%Mem=1900MB
#P OB98/GEN NMR

erre ene a

0 1
  C     -387.935     729.134    -288.605
  O     -387.271     729.802    -289.657
  H     -388.279     729.894    -287.889
  H     -387.251     728.460    -288.087
  H     -388.800     728.586    -288.974
  P     -386.747     728.922    -290.908
  C     -387.206     730.532    -292.865
  O     -387.628     729.365    -292.177
  C     -388.279     731.618    -292.769
  O     -388.415     732.031    -291.380
  C     -387.937     732.875    -293.587
  O     -389.145     733.392    -294.158
  C     -387.419     733.858    -292.537
  O     -387.611     735.217    -292.924
  C     -388.231     733.459    -291.301
  N     -387.136     737.303    -288.218
  C     -387.924     737.256    -289.358
  N     -388.488     738.430    -289.746
  N     -388.139     736.172    -290.057
  C     -387.529     735.074    -289.547
  C     -386.727     734.986    -288.437
  C     -386.478     736.203    -287.681
  O     -385.785     736.300    -286.679
  N     -386.258     733.702    -288.265
  C     -386.786     733.019    -289.263
  N     -387.556     733.812    -290.067
  O     -386.693     727.451    -290.671
  O     -385.311     729.529    -291.226
  H     -387.327     735.769    -292.159
  H     -384.597     728.976    -290.854
  H     -386.989     738.157    -287.735
  H     -386.622     731.966    -289.447
  H     -389.223     733.932    -291.276
  H     -386.350     733.686    -292.378
  H     -388.383     739.295    -289.247
  H     -387.220     732.698    -294.372
  H     -389.088     738.420    -290.562
  H     -389.234     731.197    -293.082
  H     -387.030     730.271    -293.913
  H     -386.273     730.891    -292.432
  P     -389.396     733.202    -295.735
  C     -391.825     732.330    -295.706
  O     -390.454     732.016    -295.945
  O     -388.161     733.111    -296.575
  O     -390.263     734.511    -296.115
  H     -390.060     734.747    -297.027
  H     -392.425     731.461    -295.879
  H     -392.132     733.113    -296.367
  H     -391.946     732.651    -294.692

 6  7  8  9  10  11  12  13  14  15  26  29  33  34 0
 6-311+G(2d,p)
 ****
 36  38  39  40  41 0
 6-311+G(2d,p)
 ****
 1  2  3  4  5  16  17  18  19  20  21  22  23  24  25 0
 3-21G
 ****
 27  28  30  31  32  35  37  42  43  44  45  46  47 0
 3-21G
 ****
 48  49 0
 3-21G
 ****


