%nproc=1
%NoSave
%Mem=1900MB
#P OB98/GEN NMR

erre ene a

0 1
  C      542.930     -30.614      41.904
  O      542.462     -29.272      41.769
  P      543.023     -28.110      42.722
  C      542.997     -26.121      41.117
  O      542.391     -26.703      42.269
  C      542.524     -26.748      39.795
  O      541.081     -26.677      39.673
  C      543.112     -26.112      38.536
  O      543.247     -27.174      37.585
  C      542.016     -25.146      38.116
  O      542.126     -24.750      36.761
  C      540.764     -25.963      38.470
  N      539.581     -25.117      38.629
  C      539.040     -24.558      37.475
  O      539.592     -24.730      36.386
  N      537.916     -23.779      37.578
  C      537.432     -23.502      38.751
  N      536.334     -22.697      38.797
  C      538.025     -24.000      40.010
  C      539.081     -24.803      39.871
  O      544.505     -28.100      42.890
  O      542.305     -28.392      44.133
  H      541.498     -24.012      36.596
  H      542.889     -28.094      44.857
  H      537.609     -23.723      40.968
  H      539.582     -25.231      40.732
  H      540.556     -26.702      37.688
  H      542.066     -24.241      38.734
  H      544.072     -25.616      38.702
  H      542.789     -27.815      39.833
  H      535.979     -22.350      37.915
  H      544.081     -26.230      41.198
  H      535.956     -22.334      39.658
  H      542.778     -25.044      41.114
  P      544.396     -28.286      37.709
  C      543.128     -30.356      36.923
  O      544.099     -29.385      36.588
  O      544.594     -28.831      39.081
  O      545.725     -27.559      37.172
  H      546.504     -28.066      37.469
  H      542.860     -30.922      36.018
  H      542.235     -29.898      37.334
  H      543.545     -31.056      37.656
  H      542.441     -31.236      41.184
  H      542.713     -30.970      42.890
  H      543.987     -30.641      41.739

 3  4  5  6  7  8  9  10  11  12  13  23  27  28  29  30  32 0
 6-311+G(2d,p)
 ****
 34  35 0
 6-311+G(2d,p)
 ****
 1  2  14  15  16  17  18  19  20  21  22  24  25  26 0
 3-21G
 ****
 31  33  36  37  38  39  40  41  42  43  44  45  46 0
 3-21G
 ****


