%nproc=1
%NoSave
%Mem=1900MB
#P OB98/GEN NMR

erre ene a

0 1
  C      672.309    -342.804     130.435
  O      671.948    -343.504     129.261
  H      673.144    -343.329     130.911
  H      671.471    -342.771     131.133
  H      672.631    -341.791     130.186
  P      670.715    -342.911     128.429
  C      672.129    -341.585     126.714
  O      671.292    -342.709     126.944
  C      673.297    -341.959     125.807
  O      674.167    -342.886     126.472
  C      672.884    -342.620     124.497
  O      672.525    -341.648     123.532
  C      674.173    -343.334     124.115
  O      675.072    -342.393     123.492
  C      674.735    -343.775     125.478
  N      676.613    -348.535     125.876
  C      677.112    -347.423     125.302
  N      676.533    -346.207     125.180
  C      675.319    -346.201     125.755
  C      674.679    -347.256     126.376
  C      675.383    -348.476     126.438
  N      674.865    -349.607     127.029
  N      673.435    -346.880     126.840
  C      673.356    -345.596     126.550
  N      674.449    -345.145     125.860
  O      670.025    -341.736     129.035
  O      669.798    -344.217     128.264
  H      674.586    -341.996     122.744
  H      670.352    -345.000     128.078
  H      678.104    -347.523     124.873
  H      672.532    -344.947     126.836
  H      675.822    -343.662     125.521
  H      674.009    -344.141     123.397
  H      672.094    -343.369     124.656
  H      673.875    -341.049     125.608
  H      672.513    -341.194     127.667
  H      675.354    -350.476     126.856
  H      673.905    -349.594     127.325
  H      671.516    -340.802     126.248
  P      671.820    -342.062     122.153
  C      669.587    -341.099     122.995
  O      670.591    -341.038     121.994
  O      671.476    -343.509     122.046
  O      672.845    -341.577     121.023
  H      672.637    -342.011     120.176
  H      668.827    -340.376     122.783
  H      670.022    -340.890     123.950
  H      669.154    -342.078     123.007

 6  7  8  9  10  11  12  13  14  15  25  28  32  33  34  35 0
 6-311+G(2d,p)
 ****
 36  39  40 0
 6-311+G(2d,p)
 ****
 1  2  3  4  5  16  17  18  19  20  21  22  23  24 0
 3-21G
 ****
 26  27  29  30  31  37  38  41  42  43  44  45  46  47 0
 3-21G
 ****
 48 0
 3-21G
 ****


