%nproc=1
%NoSave
%Mem=1900MB
#P OB98/GEN NMR

erre ene a

0 1
  C       55.168     619.375    -649.385
  O       55.689     620.617    -648.942
  H       55.784     619.018    -650.217
  H       54.147     619.506    -649.745
  H       55.195     618.632    -648.581
  P       55.100     621.270    -647.609
  C       57.239     621.572    -646.182
  O       56.243     622.207    -646.992
  C       58.141     622.630    -645.533
  O       58.859     623.365    -646.536
  C       57.371     623.669    -644.716
  O       56.948     623.135    -643.472
  C       58.419     624.776    -644.626
  O       59.382     624.476    -643.601
  C       59.073     624.695    -646.023
  N       58.561     625.707    -646.951
  C       59.235     626.929    -646.987
  O       60.202     627.179    -646.243
  N       58.768     627.855    -647.876
  C       57.659     627.717    -648.667
  O       57.248     628.603    -649.410
  C       56.960     626.421    -648.574
  C       57.441     625.490    -647.736
  O       54.489     620.311    -646.623
  O       54.019     622.331    -648.139
  H       60.099     625.134    -643.685
  H       53.126     621.948    -648.071
  H       59.236     628.742    -647.902
  H       56.068     626.276    -649.183
  H       56.939     624.529    -647.649
  H       60.167     624.819    -645.948
  H       57.993     625.745    -644.388
  H       56.520     624.055    -645.290
  H       58.867     622.099    -644.898
  H       57.845     620.914    -646.813
  H       56.734     620.960    -645.425
  P       55.518     623.528    -642.859
  C       54.808     621.087    -642.452
  O       55.097     622.344    -641.843
  O       54.476     623.887    -643.861
  O       55.840     624.748    -641.882
  H       55.524     625.588    -642.287
  H       54.542     620.377    -641.697
  H       55.672     620.739    -642.980
  H       53.994     621.201    -643.137

 6  7  8  9  10  11  12  13  14  15  16  26  31  32  33  34  35 0
 6-311+G(2d,p)
 ****
 36  37 0
 6-311+G(2d,p)
 ****
 1  2  3  4  5  17  18  19  20  21  22  23  24  25 0
 3-21G
 ****
 27  28  29  30  38  39  40  41  42  43  44  45 0
 3-21G
 ****


