%nproc=1
%NoSave
%Mem=1900MB
#P OB98/GEN NMR

erre ene a

0 1
  C        7.611      43.872      82.100
  O        7.561      43.736      80.695
  H        7.147      42.990      82.551
  H        7.055      44.758      82.415
  H        8.646      43.938      82.447
  P        8.295      44.834      79.786
  C        6.414      46.587      79.963
  O        7.142      45.718      79.105
  C        5.155      47.080      79.257
  O        4.372      47.908      80.147
  C        5.433      47.939      78.027
  O        5.842      47.138      76.936
  C        4.087      48.628      77.861
  O        3.138      47.758      77.224
  C        3.685      48.886      79.332
  N        3.991      50.248      79.774
  C        3.064      51.226      79.430
  O        2.041      50.992      78.790
  N        3.378      52.505      79.812
  C        4.543      52.897      80.405
  O        4.877      54.071      80.529
  C        5.450      51.812      80.811
  C        5.145      50.558      80.468
  O        9.328      44.311      78.845
  O        8.933      45.843      80.855
  H        9.884      45.649      80.952
  H        2.304      48.264      77.153
  H        2.735      53.230      79.526
  H        6.356      52.076      81.343
  H        5.813      49.744      80.730
  H        2.610      48.716      79.471
  H        4.156      49.529      77.249
  H        6.191      48.695      78.261
  H        4.548      46.205      78.989
  H        7.050      47.443      80.214
  H        6.160      46.052      80.884
  P        7.147      47.501      76.086
  C        5.966      49.456      74.924
  O        6.678      48.240      74.743
  O        8.097      46.369      75.872
  O        7.845      48.679      76.919
  H        8.777      48.442      77.091
  H        5.703      49.861      73.969
  H        6.582      50.155      75.451
  H        5.077      49.268      75.488

 6  7  8  9  10  11  12  13  14  15  16  27  31  32  33  34  35 0
 6-311+G(2d,p)
 ****
 36  37 0
 6-311+G(2d,p)
 ****
 1  2  3  4  5  17  18  19  20  21  22  23  24  25 0
 3-21G
 ****
 26  28  29  30  38  39  40  41  42  43  44  45 0
 3-21G
 ****


