%nproc=1
%NoSave
%Mem=1900MB
#P OB98/GEN NMR

erre ene a

0 1
  C      305.947     605.356      -0.661
  O      307.051     606.137      -0.240
  H      305.418     605.892      -1.451
  H      305.258     605.195       0.176
  H      306.290     604.393      -1.051
  P      307.900     605.560       0.998
  C      307.444     607.518       2.659
  O      308.357     606.879       1.779
  C      308.077     608.768       3.253
  O      309.254     608.422       4.019
  C      308.565     609.781       2.210
  O      307.509     610.565       1.665
  C      309.509     610.607       3.058
  O      308.760     611.498       3.902
  C      310.219     609.508       3.883
  N      311.449     609.032       3.268
  C      312.653     609.501       3.794
  O      312.645     610.312       4.732
  N      313.841     609.088       3.241
  C      313.834     608.262       2.243
  N      315.029     607.889       1.714
  C      312.591     607.706       1.656
  C      311.452     608.132       2.213
  O      309.268     605.063       0.321
  O      307.214     604.533       1.835
  H      308.339     612.154       3.316
  H      309.910     604.804       1.024
  H      312.627     607.033       0.822
  H      310.494     607.777       1.833
  H      310.449     609.870       4.895
  H      310.184     611.227       2.449
  H      309.140     609.295       1.408
  H      307.355     609.227       3.943
  H      315.868     608.321       2.094
  H      307.183     606.814       3.454
  H      315.113     607.392       0.833
  H      306.535     607.801       2.123
  P      307.052     610.265       0.166
  C      307.787     612.561      -0.815
  O      306.711     611.687      -0.506
  O      305.615     609.589       0.336
  O      307.992     609.398      -0.627
  H      305.486     608.870      -0.301
  H      307.403     613.459      -1.253
  H      308.449     612.082      -1.506
  H      308.320     612.801       0.081

 6  7  8  9  10  11  12  13  14  15  16  26  30  31  32  33  35 0
 6-311+G(2d,p)
 ****
 37  38 0
 6-311+G(2d,p)
 ****
 1  2  3  4  5  17  18  19  20  21  22  23  24  25 0
 3-21G
 ****
 27  28  29  34  36  39  40  41  42  43  44  45  46 0
 3-21G
 ****


