%nproc=1
%NoSave
%Mem=1900MB
#P OB98/GEN NMR

erre ene a

0 1
  C     -619.341     298.581     315.497
  O     -620.661     298.501     314.996
  P     -621.724     297.522     315.684
  C     -622.110     295.359     314.339
  O     -621.301     296.017     315.311
  C     -622.272     293.876     314.697
  O     -620.982     293.220     314.715
  C     -622.871     293.637     316.083
  O     -624.268     293.867     316.070
  C     -622.456     292.195     316.328
  O     -623.362     291.288     315.675
  C     -621.072     292.137     315.666
  N     -617.671     289.478     318.398
  C     -618.734     289.099     317.656
  N     -619.618     289.867     316.984
  C     -619.334     291.168     317.160
  C     -618.313     291.715     317.921
  C     -617.437     290.808     318.542
  N     -616.311     291.189     319.253
  N     -618.366     293.094     317.882
  C     -619.403     293.371     317.132
  N     -619.983     292.246     316.621
  O     -623.160     297.851     315.435
  O     -621.376     297.613     317.244
  H     -623.095     290.381     315.924
  H     -622.157     297.953     317.722
  H     -618.890     288.027     317.575
  H     -619.767     294.367     316.913
  H     -620.919     291.210     315.105
  H     -622.452     291.933     317.392
  H     -622.383     294.288     316.816
  H     -622.891     293.406     313.920
  H     -621.629     295.447     313.363
  H     -615.680     290.448     319.528
  H     -615.950     292.134     319.118
  H     -623.088     295.847     314.296
  P     -624.927     294.791     317.196
  C     -625.302     293.419     319.333
  O     -624.411     294.251     318.612
  O     -626.409     294.976     317.087
  O     -624.152     296.188     317.044
  H     -624.752     296.917     317.269
  H     -626.065     294.029     319.815
  H     -624.736     292.883     320.106
  H     -625.784     292.689     318.672
  H     -618.780     299.282     314.914
  H     -618.879     297.618     315.439
  H     -619.366     298.904     316.517

 3  4  5  6  7  8  9  10  11  12  22  25  29  30  31  32 0
 6-311+G(2d,p)
 ****
 33  36  37 0
 6-311+G(2d,p)
 ****
 1  2  13  14  15  16  17  18  19  20  21  23  24  26 0
 3-21G
 ****
 27  28  34  35  38  39  40  41  42  43  44  45  46  47  48 0
 3-21G
 ****


