%nproc=1
%NoSave
%Mem=1900MB
#P OB98/GEN NMR

erre ene a

0 1
  C       54.090    -270.354     266.321
  O       53.268    -271.520     266.368
  P       51.942    -271.521     265.460
  C       52.637    -273.557     263.999
  O       51.755    -273.053     264.991
  C       52.734    -275.079     264.086
  O       53.759    -275.449     265.044
  C       51.464    -275.766     264.568
  O       50.513    -275.922     263.511
  C       52.009    -277.117     265.022
  O       52.173    -277.988     263.878
  C       53.383    -276.737     265.603
  N       54.096    -279.264     269.946
  C       54.183    -279.699     268.636
  N       54.542    -280.997     268.467
  N       53.947    -278.943     267.602
  C       53.640    -277.669     267.918
  C       53.513    -277.111     269.176
  C       53.740    -277.966     270.319
  O       53.600    -277.649     271.505
  N       53.210    -275.770     269.098
  C       53.173    -275.510     267.804
  N       53.403    -276.634     267.055
  O       52.416    -270.779     264.118
  O       50.754    -270.865     266.069
  H       51.302    -278.019     263.421
  H       51.644    -270.380     263.672
  H       54.310    -279.877     270.712
  H       52.992    -274.534     267.383
  H       54.155    -277.459     265.288
  H       51.348    -277.629     265.723
  H       54.871    -281.588     269.211
  H       51.028    -275.233     265.423
  H       54.659    -281.328     267.507
  H       53.042    -275.467     263.101
  H       53.640    -273.129     264.159
  H       52.287    -273.252     263.009
  P       49.002    -275.480     263.840
  C       48.146    -275.204     261.397
  O       48.149    -275.981     262.589
  O       49.035    -273.888     263.674
  O       48.523    -275.903     265.188
  H       48.346    -273.477     264.220
  H       49.134    -274.749     261.220
  H       47.394    -274.409     261.475
  H       47.906    -275.847     260.539
  H       54.933    -270.485     266.967
  H       53.523    -269.505     266.642
  H       54.430    -270.198     265.319

 3  4  5  6  7  8  9  10  11  12  23  26  30  31  33  0
 6-311+G(2d,p)
 ****
 35  36  37  38 0
 6-311+G(2d,p)
 ****
 1  2  13  14  15  16  17  18  19  20  21  22  24  25  27  28  29 0
 3-21G
 ****
 32  34  39  40  41  42  43  44  45  46  47  48  49 0
 3-21G
 ****


