%nproc=1
%NoSave
%Mem=1900MB
#P OB98/GEN NMR

erre ene a

0 1
  C     -103.498    -375.733      60.366
  O     -104.766    -375.204      60.040
  H     -103.527    -376.824      60.337
  H     -102.768    -375.379      59.634
  H     -103.192    -375.394      61.361
  P     -105.994    -375.637      60.978
  C     -106.632    -373.311      61.931
  O     -106.989    -374.377      61.060
  C     -106.615    -371.993      61.161
  O     -105.515    -372.032      60.214
  C     -107.905    -371.686      60.385
  O     -108.455    -370.436      60.809
  C     -107.454    -371.547      58.940
  O     -108.103    -370.479      58.246
  C     -105.954    -371.303      59.058
  N     -103.826    -369.754      54.692
  C     -104.102    -369.092      55.838
  N     -104.569    -369.584      57.002
  C     -104.730    -370.918      56.924
  C     -104.470    -371.734      55.835
  C     -104.012    -371.095      54.670
  N     -103.785    -371.766      53.487
  N     -104.764    -373.050      56.132
  C     -105.235    -373.024      57.362
  N     -105.251    -371.753      57.873
  O     -105.337    -375.695      62.439
  O     -106.642    -376.931      60.613
  H     -109.056    -370.701      58.220
  H     -105.590    -376.525      62.879
  H     -103.928    -368.019      55.813
  H     -105.622    -373.876      57.905
  H     -105.718    -370.243      59.215
  H     -107.665    -372.482      58.408
  H     -108.657    -372.477      60.487
  H     -106.398    -371.183      61.871
  H     -105.634    -373.495      62.345
  H     -103.571    -371.213      52.670
  H     -104.023    -372.745      53.429
  H     -107.349    -373.271      62.754
  P     -110.036    -370.412      61.120
  C     -110.127    -369.362      63.500
  O     -110.311    -369.174      62.104
  O     -110.232    -371.686      62.067
  O     -110.891    -370.480      59.900
  H     -111.146    -372.028      61.986
  H     -110.349    -368.451      64.015
  H     -109.112    -369.642      63.691
  H     -110.781    -370.135      63.845

 6  7  8  9  10  11  12  13  14  15  25  28  32  33  34  35 0
 6-311+G(2d,p)
 ****
 36  39  40 0
 6-311+G(2d,p)
 ****
 1  2  3  4  5  16  17  18  19  20  21  22  23  24 0
 3-21G
 ****
 26  27  29  30  31  37  38  41  42  43  44  45  46  47  48 0
 3-21G
 ****


