%nproc=1
%NoSave
%Mem=1900MB
#P OB98/GEN NMR

erre ene a

0 1
  C     -231.458     134.271    -762.097
  O     -230.158     133.946    -761.642
  H     -231.838     133.440    -762.697
  H     -231.427     135.169    -762.721
  H     -232.128     134.430    -761.247
  P     -229.411     135.060    -760.758
  C     -230.250     134.483    -758.372
  O     -230.367     135.339    -759.496
  C     -230.520     135.257    -757.082
  O     -229.541     136.306    -756.901
  C     -231.888     135.923    -757.024
  O     -232.889     135.003    -756.621
  C     -231.645     137.017    -755.996
  O     -231.718     136.506    -754.648
  C     -230.215     137.463    -756.333
  N     -231.620     142.253    -757.091
  C     -231.809     141.428    -756.001
  N     -232.533     141.945    -754.977
  N     -231.349     140.214    -755.918
  C     -230.679     139.822    -757.029
  C     -230.410     140.545    -758.166
  C     -230.899     141.908    -758.226
  O     -230.707     142.708    -759.138
  N     -229.682     139.809    -759.065
  C     -229.546     138.627    -758.491
  N     -230.149     138.580    -757.260
  O     -229.560     136.395    -761.633
  O     -227.985     134.770    -760.436
  H     -230.960     135.921    -754.488
  H     -228.788     136.969    -761.469
  H     -231.988     143.188    -757.086
  H     -229.029     137.786    -758.923
  H     -229.653     137.759    -755.441
  H     -232.391     137.810    -756.066
  H     -233.170     142.718    -755.117
  H     -232.141     136.380    -757.988
  H     -232.693     141.345    -754.183
  H     -230.395     134.557    -756.248
  H     -229.230     134.077    -758.336
  H     -230.960     133.657    -758.468
  P     -234.414     135.502    -756.637
  C     -234.637     135.179    -759.210
  O     -234.686     136.079    -758.111
  O     -234.379     136.819    -755.727
  O     -235.404     134.504    -756.141
  H     -235.283     137.057    -755.444
  H     -234.838     135.711    -760.116
  H     -235.372     134.413    -759.076
  H     -233.665     134.736    -759.265

 6  7  8  9  10  11  12  13  14  15  26  29  33  34 0
 6-311+G(2d,p)
 ****
 36  38  39  40  41 0
 6-311+G(2d,p)
 ****
 1  2  3  4  5  16  17  18  19  20  21  22  23  24  25 0
 3-21G
 ****
 27  28  30  31  32  35  37  42  43  44  45  46  47 0
 3-21G
 ****
 48  49 0
 3-21G
 ****


