%nproc=1
%NoSave
%Mem=1900MB
#P OB98/GEN NMR

erre ene a

0 1
  C     -206.585    1062.908    1607.160
  O     -206.648    1064.037    1608.036
  P     -206.278    1063.802    1609.600
  C     -208.377    1062.395    1610.364
  O     -207.668    1063.657    1610.371
  C     -208.988    1062.181    1611.735
  O     -207.959    1061.995    1612.735
  C     -209.861    1063.329    1612.266
  O     -211.130    1063.387    1611.624
  C     -209.903    1063.019    1613.771
  O     -210.880    1062.014    1614.035
  C     -208.459    1062.452    1613.994
  N     -207.563    1063.437    1614.596
  C     -207.805    1063.825    1615.917
  O     -208.778    1063.349    1616.574
  N     -206.963    1064.745    1616.462
  C     -205.916    1065.365    1615.782
  O     -205.232    1066.214    1616.324
  C     -205.682    1064.972    1614.417
  C     -206.522    1064.018    1613.865
  O     -205.746    1065.268    1609.949
  O     -205.255    1062.716    1609.765
  H     -206.179    1065.981    1609.401
  H     -210.855    1061.872    1615.021
  H     -207.140    1064.988    1617.394
  H     -204.882    1065.428    1613.843
  H     -206.374    1063.737    1612.856
  H     -208.514    1061.568    1614.657
  H     -210.129    1063.904    1614.387
  H     -209.324    1064.280    1612.086
  H     -209.619    1061.262    1611.703
  H     -207.665    1061.587    1610.157
  H     -209.134    1062.432    1609.583
  P     -211.335    1064.572    1610.516
  C     -211.988    1066.454    1612.213
  O     -212.356    1065.623    1611.157
  O     -212.155    1063.783    1609.410
  O     -210.057    1065.165    1610.025
  H     -212.861    1063.188    1609.777
  H     -212.650    1067.317    1612.270
  H     -210.924    1066.810    1612.120
  H     -212.072    1065.870    1613.162
  H     -206.852    1063.210    1606.169
  H     -207.265    1062.155    1607.499
  H     -205.590    1062.514    1607.157

 3  4  5  6  7  8  9  10  11  12  13  24  28  29  30  31  32 0
 6-311+G(2d,p)
 ****
 33  34 0
 6-311+G(2d,p)
 ****
 1  2  14  15  16  17  18  19  20  21  22  23  25  26  27 0
 3-21G
 ****
 35  36  37  38  39  40  41  42  43  44  45 0
 3-21G
 ****


