%nproc=1
%NoSave
%Mem=1900MB
#P OB98/GEN NMR

erre ene a

0 1
  C       44.306    -124.110     -40.008
  O       43.871    -125.116     -40.899
  H       44.530    -124.572     -39.043
  H       43.524    -123.360     -39.864
  H       45.215    -123.634     -40.386
  P       43.412    -124.693     -42.374
  C       43.745    -125.793     -44.685
  O       43.538    -126.004     -43.292
  C       44.595    -126.927     -45.269
  O       45.964    -126.716     -44.842
  C       44.145    -128.312     -44.780
  O       43.900    -129.229     -45.844
  C       45.211    -128.685     -43.757
  O       45.391    -130.074     -43.572
  C       46.452    -127.940     -44.262
  N       47.439    -127.660     -43.222
  C       48.763    -127.987     -43.494
  O       49.172    -128.470     -44.549
  N       49.657    -127.726     -42.486
  C       49.360    -127.194     -41.268
  O       50.205    -126.977     -40.406
  C       47.941    -126.891     -41.030
  C       47.058    -127.135     -42.003
  O       44.070    -123.475     -42.931
  O       41.827    -124.496     -42.246
  H       46.057    -130.196     -42.865
  H       41.619    -123.544     -42.204
  H       50.621    -127.949     -42.676
  H       47.669    -126.476     -40.070
  H       46.003    -126.921     -41.863
  H       46.949    -128.513     -45.045
  H       44.915    -128.268     -42.786
  H       43.174    -128.249     -44.273
  H       44.574    -126.857     -46.362
  H       44.256    -124.833     -44.808
  H       42.779    -125.752     -45.199
  P       42.452    -129.693     -46.328
  C       41.512    -131.308     -48.166
  O       42.639    -130.798     -47.471
  O       41.480    -128.596     -46.600
  O       41.894    -130.539     -45.070
  H       40.925    -130.403     -45.052
  H       41.834    -132.031     -48.886
  H       41.008    -130.507     -48.665
  H       40.844    -131.771     -47.470

 6  7  8  9  10  11  12  13  14  15  16  26  31  32  33  34  35 0
 6-311+G(2d,p)
 ****
 36  37 0
 6-311+G(2d,p)
 ****
 1  2  3  4  5  17  18  19  20  21  22  23  24  25 0
 3-21G
 ****
 27  28  29  30  38  39  40  41  42  43  44  45 0
 3-21G
 ****


