%nproc=1
%NoSave
%Mem=1900MB
#P OB98/GEN NMR

erre ene a

0 1
  C     -234.744    -470.652    -214.840
  O     -234.032    -470.182    -213.714
  H     -235.330    -471.528    -214.545
  H     -234.050    -470.946    -215.631
  H     -235.423    -469.878    -215.207
  P     -233.056    -468.932    -213.943
  C     -230.506    -468.506    -213.652
  O     -231.565    -469.455    -213.671
  C     -229.323    -469.069    -212.872
  O     -229.687    -469.231    -211.480
  C     -228.868    -470.443    -213.338
  O     -228.080    -470.379    -214.518
  C     -228.079    -470.914    -212.125
  O     -226.733    -470.409    -212.146
  C     -228.880    -470.307    -210.951
  N     -229.689    -471.310    -210.255
  C     -229.014    -472.072    -209.305
  O     -227.822    -471.926    -209.044
  N     -229.757    -473.034    -208.683
  C     -231.068    -473.334    -208.943
  O     -231.656    -474.261    -208.397
  C     -231.727    -472.489    -209.951
  C     -231.015    -471.536    -210.563
  O     -233.366    -467.990    -212.683
  O     -233.240    -468.216    -215.242
  H     -233.935    -467.248    -212.955
  H     -226.385    -470.603    -213.038
  H     -229.285    -473.603    -207.991
  H     -232.768    -472.695    -210.175
  H     -231.478    -470.914    -211.327
  H     -228.202    -469.856    -210.215
  H     -228.005    -472.001    -212.084
  H     -229.735    -471.105    -213.472
  H     -228.494    -468.344    -212.926
  H     -230.850    -467.585    -213.167
  H     -230.220    -468.276    -214.685
  P     -227.739    -471.746    -215.286
  C     -225.505    -472.996    -215.885
  O     -226.143    -471.918    -215.220
  O     -228.027    -471.327    -216.801
  O     -228.519    -472.922    -214.795
  H     -227.785    -470.405    -216.995
  H     -224.449    -472.939    -215.724
  H     -225.710    -472.940    -216.934
  H     -225.875    -473.923    -215.499

 6  7  8  9  10  11  12  13  14  15  16  27  31  32  33  34  35 0
 6-311+G(2d,p)
 ****
 36  37 0
 6-311+G(2d,p)
 ****
 1  2  3  4  5  17  18  19  20  21  22  23  24  25 0
 3-21G
 ****
 26  28  29  30  38  39  40  41  42  43  44  45 0
 3-21G
 ****


