%nproc=1
%NoSave
%Mem=1900MB
#P OB98/GEN NMR

erre ene a

0 1
  C       74.104     285.325      21.652
  O       73.470     285.274      20.390
  H       73.592     284.633      22.327
  H       74.038     286.332      22.070
  H       75.152     285.023      21.573
  P       74.108     286.098      19.172
  C       75.828     284.282      18.549
  O       75.627     285.608      19.025
  C       77.007     284.251      17.582
  O       77.411     282.887      17.328
  C       76.701     284.854      16.216
  O       76.676     286.265      16.282
  C       77.833     284.261      15.391
  O       79.057     284.981      15.602
  C       77.934     282.835      15.981
  N       77.228     281.836      15.177
  C       78.025     280.968      14.439
  O       79.252     281.018      14.436
  N       77.354     280.064      13.657
  C       76.002     280.009      13.483
  O       75.460     279.335      12.611
  C       75.211     280.898      14.345
  C       75.850     281.768      15.131
  O       73.922     287.578      19.222
  O       73.401     285.462      17.881
  H       72.686     286.055      17.580
  H       79.710     284.604      14.982
  H       77.923     279.461      13.080
  H       74.130     280.840      14.283
  H       75.285     282.453      15.753
  H       78.986     282.527      16.061
  H       77.625     284.289      14.318
  H       75.748     284.465      15.838
  H       77.851     284.770      18.055
  H       74.919     283.960      18.027
  H       76.004     283.619      19.401
  P       76.672     287.156      14.952
  C       74.193     286.655      14.527
  O       75.508     286.610      13.994
  O       77.998     287.314      14.289
  O       76.102     288.575      15.432
  H       76.725     289.279      15.158
  H       73.503     286.269      13.806
  H       73.937     287.668      14.759
  H       74.148     286.063      15.417

 6  7  8  9  10  11  12  13  14  15  16  27  31  32  33  34  35 0
 6-311+G(2d,p)
 ****
 36  37 0
 6-311+G(2d,p)
 ****
 1  2  3  4  5  17  18  19  20  21  22  23  24  25 0
 3-21G
 ****
 26  28  29  30  38  39  40  41  42  43  44  45 0
 3-21G
 ****


