%nproc=1
%NoSave
%Mem=1900MB
#P OB98/GEN NMR

erre ene a

0 1
  C      222.938     205.305      19.262
  O      222.613     204.283      20.184
  H      222.531     206.251      19.632
  H      222.506     205.098      18.280
  H      224.024     205.405      19.177
  P      222.878     202.760      19.745
  C      225.346     202.635      20.498
  O      224.444     202.679      19.393
  C      226.363     201.504      20.327
  O      225.688     200.232      20.251
  C      227.178     201.599      19.046
  O      228.091     202.676      19.020
  C      227.684     200.176      18.873
  O      228.891     199.914      19.585
  C      226.527     199.348      19.481
  N      225.773     198.630      18.462
  C      226.183     197.324      18.209
  O      227.137     196.790      18.777
  N      225.484     196.659      17.239
  C      224.474     197.177      16.484
  O      223.917     196.539      15.598
  C      224.101     198.570      16.780
  C      224.756     199.222      17.741
  O      221.986     202.231      18.663
  O      222.774     201.946      21.117
  H      229.494     200.663      19.409
  H      222.653     200.981      20.952
  H      225.763     195.709      17.050
  H      223.305     199.014      16.196
  H      224.501     200.253      17.976
  H      226.924     198.607      20.188
  H      227.877     199.946      17.822
  H      226.482     201.779      18.216
  H      227.015     201.491      21.209
  H      224.756     202.453      21.403
  H      225.855     203.597      20.599
  P      228.519     203.432      17.678
  C      226.498     205.063      17.607
  O      227.188     203.990      16.970
  O      229.554     202.762      16.829
  O      229.179     204.779      18.272
  H      229.913     205.033      17.676
  H      225.638     205.328      17.028
  H      227.149     205.908      17.687
  H      226.189     204.758      18.585

 6  7  8  9  10  11  12  13  14  15  16  26  31  32  33  34  35 0
 6-311+G(2d,p)
 ****
 36  37 0
 6-311+G(2d,p)
 ****
 1  2  3  4  5  17  18  19  20  21  22  23  24  25 0
 3-21G
 ****
 27  28  29  30  38  39  40  41  42  43  44  45 0
 3-21G
 ****


