%nproc=1
%NoSave
%Mem=1900MB
#P OB98/GEN NMR

erre ene a

0 1
  C     -224.047     -48.720     530.469
  O     -224.950     -49.415     531.314
  P     -226.453     -49.610     530.810
  C     -227.085     -50.114     533.293
  O     -227.213     -50.476     531.923
  C     -227.188     -51.363     534.170
  O     -228.478     -51.986     534.014
  C     -226.168     -52.447     533.829
  O     -224.886     -52.136     534.361
  C     -226.805     -53.677     534.442
  O     -226.503     -53.769     535.849
  C     -228.311     -53.411     534.221
  N     -228.866     -54.186     533.124
  C     -228.966     -55.556     533.345
  O     -228.586     -56.108     534.387
  N     -229.479     -56.298     532.306
  C     -229.838     -55.813     531.079
  O     -230.239     -56.534     530.165
  C     -229.685     -54.358     530.895
  C     -229.206     -53.630     531.902
  O     -226.320     -50.619     529.568
  O     -227.143     -48.349     530.424
  H     -226.820     -54.642     536.153
  H     -226.975     -50.389     528.885
  H     -229.580     -57.288     532.451
  H     -229.956     -53.940     529.935
  H     -229.075     -52.553     531.788
  H     -228.881     -53.650     535.142
  H     -226.446     -54.599     533.984
  H     -226.109     -52.566     532.735
  H     -227.082     -51.061     535.225
  H     -227.883     -49.410     533.554
  H     -226.125     -49.614     533.443
  P     -223.633     -52.253     533.366
  C     -221.697     -53.379     534.715
  O     -222.341     -52.190     534.314
  O     -223.688     -50.829     532.632
  O     -223.723     -53.429     532.444
  H     -224.021     -50.132     533.230
  H     -221.734     -54.153     533.928
  H     -222.191     -53.762     535.620
  H     -220.654     -53.162     534.951
  H     -223.087     -48.669     530.938
  H     -224.412     -47.729     530.295
  H     -223.962     -49.237     529.536

 3  4  5  6  7  8  9  10  11  12  13  23  28  29  30  31  32 0
 6-311+G(2d,p)
 ****
 33  34 0
 6-311+G(2d,p)
 ****
 1  2  14  15  16  17  18  19  20  21  22  24  25  26 0
 3-21G
 ****
 27  35  36  37  38  39  40  41  42  43  44  45 0
 3-21G
 ****


