%nproc=1
%NoSave
%Mem=1900MB
#P OB98/GEN NMR

erre ene a

0 1
  C      315.396    -333.194    -926.172
  O      314.880    -332.695    -924.954
  P      315.925    -332.362    -923.783
  C      314.861    -330.285    -922.638
  O      315.113    -331.681    -922.569
  C      313.866    -329.857    -921.569
  O      312.542    -330.408    -921.892
  C      314.218    -330.339    -920.143
  O      313.783    -329.348    -919.198
  C      313.348    -331.556    -919.959
  O      313.124    -331.838    -918.573
  C      312.090    -331.152    -920.735
  N      308.124    -334.039    -919.554
  C      308.483    -332.800    -919.063
  N      307.709    -332.317    -918.061
  N      309.472    -332.113    -919.525
  C      310.157    -332.724    -920.523
  C      309.886    -333.941    -921.109
  C      308.776    -334.701    -920.591
  O      308.418    -335.825    -920.970
  N      310.762    -334.220    -922.126
  C      311.606    -333.212    -922.120
  N      311.284    -332.285    -921.149
  O      316.782    -331.138    -924.388
  O      316.803    -333.515    -923.394
  H      312.453    -332.534    -918.535
  H      317.672    -331.470    -924.659
  H      307.339    -334.545    -919.183
  H      312.464    -333.082    -922.789
  H      311.458    -330.503    -920.139
  H      313.837    -332.416    -920.410
  H      306.965    -332.838    -917.620
  H      315.288    -330.541    -919.997
  H      307.990    -331.432    -917.649
  H      313.762    -328.765    -921.607
  H      314.482    -330.023    -923.617
  H      315.812    -329.742    -922.491
  P      314.887    -328.878    -918.109
  C      314.629    -326.365    -918.756
  O      314.533    -327.365    -917.750
  O      316.217    -328.777    -918.977
  O      315.023    -329.813    -916.949
  H      317.003    -328.898    -918.406
  H      313.640    -325.950    -918.940
  H      315.050    -326.764    -919.692
  H      315.307    -325.583    -918.394
  H      314.591    -333.370    -926.855
  H      315.916    -334.111    -925.990
  H      316.071    -332.479    -926.593

 3  4  5  6  7  8  9  10  11  12  23  26  30  31 0
 6-311+G(2d,p)
 ****
 33  35  36  37  38 0
 6-311+G(2d,p)
 ****
 1  2  13  14  15  16  17  18  19  20  21  22  24  25 0
 3-21G
 ****
 27  28  29  32  34  39  40  41  42  43  44  45  46  47  48  49 0
 3-21G
 ****


