%nproc=1
%NoSave
%Mem=1900MB
#P OB98/GEN NMR

erre ene a

0 1
  C      -19.806       1.382     162.256
  O      -18.410       1.591     162.273
  H      -20.295       2.220     162.757
  H      -20.042       0.464     162.801
  H      -20.181       1.314     161.231
  P      -17.523       0.711     161.268
  C      -15.721       2.504     160.743
  O      -16.020       1.268     161.374
  C      -14.641       3.254     161.523
  O      -15.239       3.794     162.740
  C      -13.445       2.382     161.938
  O      -12.249       3.169     161.859
  C      -13.728       2.097     163.401
  O      -12.550       1.770     164.128
  C      -14.374       3.412     163.826
  N      -13.818       3.571     168.810
  C      -12.958       3.950     167.799
  N      -11.732       4.382     168.162
  N      -13.271       3.902     166.531
  C      -14.535       3.468     166.305
  C      -15.478       3.061     167.214
  C      -15.115       3.100     168.616
  O      -15.823       2.759     169.555
  N      -16.618       2.632     166.581
  C      -16.353       2.761     165.292
  N      -15.100       3.263     165.075
  O      -18.013       1.222     159.831
  O      -17.668      -0.766     161.413
  H      -12.187       0.936     163.765
  H      -18.711       0.632     159.492
  H      -13.521       3.610     169.770
  H      -17.018       2.489     164.486
  H      -13.639       4.212     163.978
  H      -14.435       1.263     163.491
  H      -11.429       4.476     169.120
  H      -13.329       1.473     161.340
  H      -11.106       4.701     167.434
  H      -14.307       4.110     160.925
  H      -16.627       3.118     160.708
  H      -15.387       2.313     159.718
  P      -10.998       2.561     161.064
  C      -11.639       3.147     158.611
  O      -10.786       3.405     159.717
  O      -11.555       1.157     160.533
  O       -9.777       2.381     161.904
  H      -10.837       0.497     160.527
  H      -11.371       3.787     157.797
  H      -12.654       3.334     158.892
  H      -11.535       2.125     158.311

 6  7  8  9  10  11  12  13  14  15  26  29  33  34 0
 6-311+G(2d,p)
 ****
 36  38  39  40  41 0
 6-311+G(2d,p)
 ****
 1  2  3  4  5  16  17  18  19  20  21  22  23  24  25 0
 3-21G
 ****
 27  28  30  31  32  35  37  42  43  44  45  46  47 0
 3-21G
 ****
 48  49 0
 3-21G
 ****


