%nproc=1
%NoSave
%Mem=1900MB
#P OB98/GEN NMR

erre ene a

0 1
  C     -220.689     364.471     238.324
  O     -220.273     363.901     239.558
  P     -221.223     364.121     240.835
  C     -221.474     361.677     241.674
  O     -222.068     362.769     240.978
  C     -222.080     361.534     243.059
  O     -223.439     361.082     242.954
  C     -221.381     360.512     243.956
  O     -220.214     361.051     244.557
  C     -222.461     360.247     244.995
  O     -222.439     361.280     245.993
  C     -223.748     360.334     244.159
  N     -227.618     357.108     244.714
  C     -227.428     358.366     245.255
  N     -228.423     358.842     246.037
  N     -226.358     359.089     245.052
  C     -225.461     358.501     244.222
  C     -225.534     357.265     243.626
  C     -226.701     356.452     243.900
  O     -226.896     355.308     243.499
  N     -224.442     357.028     242.836
  C     -223.725     358.131     242.924
  N     -224.293     359.044     243.775
  O     -222.304     365.177     240.303
  O     -220.535     364.604     242.067
  H     -221.609     361.179     246.494
  H     -222.673     365.679     241.054
  H     -228.467     356.600     244.891
  H     -222.799     358.305     242.391
  H     -224.533     360.893     244.691
  H     -222.322     359.297     245.515
  H     -229.319     358.385     246.120
  H     -221.165     359.592     243.401
  H     -228.313     359.777     246.412
  H     -222.087     362.521     243.540
  H     -220.397     361.861     241.770
  H     -221.624     360.764     241.089
  P     -219.091     359.991     245.018
  C     -217.611     360.383     242.914
  O     -218.416     359.479     243.652
  O     -219.951     358.738     245.507
  O     -218.163     360.495     246.067
  H     -219.446     358.216     246.165
  H     -217.041     361.046     243.566
  H     -218.252     360.977     242.253
  H     -216.910     359.809     242.302
  H     -219.967     364.248     237.567
  H     -220.776     365.532     238.432
  H     -221.638     364.063     238.044

 3  4  5  6  7  8  9  10  11  12  23  26  30  31  33  0
 6-311+G(2d,p)
 ****
 35  36  37  38 0
 6-311+G(2d,p)
 ****
 1  2  13  14  15  16  17  18  19  20  21  22  24  25  27  28  29 0
 3-21G
 ****
 32  34  39  40  41  42  43  44  45  46  47  48  49 0
 3-21G
 ****


