%nproc=1
%NoSave
%Mem=1900MB
#P OB98/GEN NMR

erre ene a

0 1
  C      -20.325      -6.272      -9.006
  O      -20.274      -6.503     -10.396
  P      -21.540      -6.223     -11.334
  C      -22.002      -8.741     -11.625
  O      -21.708      -7.512     -12.281
  C      -21.593      -9.926     -12.509
  O      -21.850     -11.164     -11.776
  C      -22.381      -9.985     -13.832
  O      -21.566     -10.076     -15.001
  C      -23.329     -11.152     -13.605
  O      -23.835     -11.722     -14.796
  C      -22.490     -12.063     -12.702
  N      -23.295     -13.078     -12.028
  C      -23.819     -14.098     -12.816
  O      -23.641     -14.203     -14.026
  N      -24.630     -14.993     -12.175
  C      -25.055     -14.906     -10.884
  O      -25.862     -15.689     -10.401
  C      -24.499     -13.785     -10.111
  C      -23.641     -12.947     -10.698
  O      -21.518      -4.924     -12.066
  O      -22.777      -6.386     -10.331
  H      -23.107     -12.203     -15.231
  H      -22.850      -7.259      -9.908
  H      -25.017     -15.737     -12.734
  H      -24.826     -13.685      -9.086
  H      -23.215     -12.112     -10.154
  H      -21.703     -12.565     -13.265
  H      -24.192     -10.775     -13.040
  H      -22.963      -9.069     -13.985
  H      -20.518      -9.849     -12.693
  H      -23.076      -8.790     -11.436
  H      -21.494      -8.775     -10.655
  P      -21.174      -8.844     -15.945
  C      -23.405      -8.899     -17.279
  O      -21.995      -8.982     -17.311
  O      -19.710      -8.610     -16.108
  O      -21.869      -7.591     -15.230
  H      -21.355      -6.783     -15.417
  H      -23.808      -9.486     -18.108
  H      -23.707      -7.857     -17.410
  H      -23.810      -9.285     -16.340
  H      -19.381      -6.521      -8.568
  H      -21.091      -6.880      -8.571
  H      -20.542      -5.240      -8.824

 3  4  5  6  7  8  9  10  11  12  13  23  28  29  30  31  32 0
 6-311+G(2d,p)
 ****
 33  34 0
 6-311+G(2d,p)
 ****
 1  2  14  15  16  17  18  19  20  21  22  24  25  26  27 0
 3-21G
 ****
 35  36  37  38  39  40  41  42  43  44  45 0
 3-21G
 ****


