%nproc=1
%NoSave
%Mem=1900MB
#P OB98/GEN NMR

erre ene a

0 1
  C     -401.320    -510.871     228.786
  O     -400.311    -509.983     229.223
  H     -401.170    -511.069     227.719
  H     -402.308    -510.420     228.927
  H     -401.255    -511.812     229.337
  P     -400.372    -509.529     230.763
  C     -400.032    -506.979     230.871
  O     -399.401    -508.250     230.843
  C     -398.988    -505.863     230.952
  O     -398.264    -505.988     232.198
  C     -397.960    -505.910     229.815
  O     -397.637    -504.581     229.409
  C     -396.743    -506.549     230.460
  O     -395.527    -506.192     229.813
  C     -396.861    -506.051     231.905
  N     -393.230    -506.317     235.483
  C     -393.769    -505.275     234.817
  N     -394.742    -505.290     233.891
  C     -395.205    -506.547     233.696
  C     -394.752    -507.710     234.299
  C     -393.707    -507.559     235.224
  N     -393.131    -508.623     235.884
  N     -395.439    -508.799     233.806
  C     -396.301    -508.306     232.939
  N     -396.187    -506.949     232.833
  O     -400.101    -510.601     231.765
  O     -401.825    -508.862     230.851
  H     -395.290    -505.279     230.087
  H     -402.001    -508.291     230.080
  H     -393.353    -504.293     235.064
  H     -397.021    -508.884     232.364
  H     -396.426    -505.053     232.038
  H     -396.838    -507.643     230.424
  H     -398.314    -506.482     228.956
  H     -399.506    -504.895     230.969
  H     -400.703    -506.909     231.740
  H     -392.393    -508.435     236.543
  H     -393.482    -509.563     235.716
  H     -400.632    -506.873     229.960
  P     -397.810    -504.198     227.869
  C     -395.643    -502.974     227.134
  O     -396.994    -502.835     227.583
  O     -399.195    -504.233     227.322
  O     -396.881    -505.294     227.132
  H     -397.308    -505.553     226.298
  H     -395.216    -502.005     226.982
  H     -395.627    -503.519     226.213
  H     -395.075    -503.502     227.871

 6  7  8  9  10  11  12  13  14  15  25  28  32  33  34  35 0
 6-311+G(2d,p)
 ****
 36  39  40 0
 6-311+G(2d,p)
 ****
 1  2  3  4  5  16  17  18  19  20  21  22  23  24 0
 3-21G
 ****
 26  27  29  30  31  37  38  41  42  43  44  45  46  47 0
 3-21G
 ****
 48 0
 3-21G
 ****


