%nproc=1
%NoSave
%Mem=1900MB
#P OB98/GEN NMR

erre ene a

0 1
  C       78.068    -406.627     260.614
  O       79.438    -406.662     260.962
  H       77.801    -405.620     260.284
  H       77.898    -407.324     259.789
  H       77.444    -406.921     261.461
  P       79.864    -405.950     262.335
  C       79.082    -407.828     263.947
  O       78.867    -406.510     263.464
  C       79.067    -407.846     265.475
  O       77.805    -407.279     265.931
  C       79.202    -409.248     266.092
  O       80.021    -409.150     267.262
  C       77.781    -409.583     266.510
  O       77.730    -410.523     267.577
  C       77.249    -408.203     266.882
  N       73.083    -409.926     269.232
  C       74.374    -409.862     269.619
  N       75.418    -409.333     268.948
  C       75.011    -408.778     267.795
  C       73.729    -408.760     267.271
  C       72.734    -409.388     268.038
  N       71.429    -409.523     267.623
  N       73.724    -408.146     266.032
  C       74.982    -407.821     265.805
  N       75.797    -408.186     266.842
  O       79.367    -404.444     262.109
  O       81.316    -406.014     262.671
  H       78.242    -410.173     268.330
  H       80.066    -403.932     261.665
  H       74.603    -410.299     270.588
  H       75.357    -407.356     264.907
  H       77.554    -407.890     267.889
  H       77.238    -409.998     265.655
  H       79.623    -409.994     265.409
  H       79.864    -407.186     265.837
  H       80.061    -408.181     263.599
  H       70.812    -410.082     268.191
  H       71.181    -409.225     266.691
  H       78.307    -408.491     263.550
  P       81.611    -409.137     267.051
  C       82.037    -406.645     267.678
  O       82.061    -407.648     266.668
  O       81.805    -409.945     265.685
  O       82.374    -409.761     268.174
  H       82.644    -410.435     265.699
  H       82.363    -405.714     267.264
  H       82.689    -406.928     268.477
  H       81.040    -406.539     268.052

 6  7  8  9  10  11  12  13  14  15  25  28  32  33  34  35 0
 6-311+G(2d,p)
 ****
 36  39  40 0
 6-311+G(2d,p)
 ****
 1  2  3  4  5  16  17  18  19  20  21  22  23  24 0
 3-21G
 ****
 26  27  29  30  31  37  38  41  42  43  44  45  46  47 0
 3-21G
 ****
 48 0
 3-21G
 ****


