%nproc=1
%NoSave
%Mem=1900MB
#P OB98/GEN NMR

erre ene a

0 1
  C      865.690    -181.573    -787.266
  O      865.029    -180.760    -788.243
  P      865.049    -179.178    -787.990
  C      864.802    -178.754    -790.541
  O      865.513    -178.456    -789.346
  C      864.924    -177.588    -791.525
  O      864.037    -176.501    -791.176
  C      866.315    -176.965    -791.558
  O      867.224    -177.790    -792.266
  C      866.018    -175.631    -792.229
  O      865.897    -175.800    -793.657
  C      864.647    -175.272    -791.639
  N      862.546    -171.117    -789.509
  C      862.237    -171.816    -790.619
  N      862.849    -172.906    -791.120
  C      863.873    -173.284    -790.338
  C      864.299    -172.674    -789.172
  C      863.595    -171.532    -788.755
  N      863.920    -170.814    -787.628
  N      865.389    -173.342    -788.649
  C      865.630    -174.324    -789.493
  N      864.731    -174.338    -790.526
  O      866.296    -178.974    -787.008
  O      863.786    -178.652    -787.396
  H      865.163    -176.431    -793.814
  H      865.981    -178.753    -786.111
  H      861.385    -171.443    -791.185
  H      866.430    -175.039    -789.407
  H      863.972    -174.825    -792.384
  H      866.794    -174.875    -792.055
  H      866.681    -176.797    -790.541
  H      864.654    -177.947    -792.524
  H      863.750    -178.943    -790.323
  H      863.406    -169.966    -787.442
  H      864.748    -171.069    -787.107
  H      865.201    -179.676    -790.974
  P      868.067    -178.866    -791.422
  C      866.529    -180.786    -792.160
  O      866.988    -180.006    -791.076
  O      868.250    -178.110    -790.027
  O      869.318    -179.338    -792.076
  H      867.411    -177.711    -789.722
  H      865.828    -181.539    -791.780
  H      867.371    -181.290    -792.644
  H      866.008    -180.152    -792.885
  H      865.608    -182.603    -787.544
  H      865.233    -181.425    -786.310
  H      866.723    -181.299    -787.214

 3  4  5  6  7  8  9  10  11  12  22  25  29  30  31  32 0
 6-311+G(2d,p)
 ****
 33  36  37 0
 6-311+G(2d,p)
 ****
 1  2  13  14  15  16  17  18  19  20  21  23  24  26 0
 3-21G
 ****
 27  28  34  35  38  39  40  41  42  43  44  45  46  47  48 0
 3-21G
 ****


