%nproc=1
%NoSave
%Mem=1900MB
#P OB98/GEN NMR

erre ene a

0 1
  C       22.204      54.402    -115.581
  O       21.252      54.953    -116.494
  P       21.425      54.753    -118.075
  C       23.167      56.614    -118.320
  O       22.900      55.229    -118.511
  C       24.084      57.210    -119.398
  O       25.458      56.790    -119.203
  C       23.704      56.849    -120.841
  O       24.058      57.985    -121.637
  C       24.623      55.676    -121.128
  O       24.771      55.429    -122.525
  C       25.898      56.114    -120.397
  N       26.781      54.991    -120.093
  C       27.547      54.483    -121.144
  O       27.420      54.942    -122.284
  N       28.402      53.436    -120.895
  C       28.411      52.877    -119.723
  N       29.260      51.828    -119.544
  C       27.555      53.327    -118.605
  C       26.778      54.385    -118.856
  O       20.319      55.333    -118.904
  O       21.482      53.159    -118.255
  H       25.488      56.010    -122.865
  H       21.115      52.921    -119.130
  H       27.578      52.816    -117.653
  H       26.121      54.788    -118.099
  H       26.462      56.842    -121.000
  H       24.218      54.764    -120.675
  H       22.647      56.597    -120.960
  H       24.069      58.300    -119.273
  H       29.812      51.536    -120.345
  H       23.638      56.747    -117.337
  H       29.264      51.253    -118.712
  H       22.217      57.161    -118.298
  P       22.964      59.030    -122.157
  C       23.370      58.364    -124.598
  O       22.415      58.469    -123.555
  O       23.420      60.453    -122.196
  O       21.709      58.847    -121.170
  H       21.131      59.625    -121.241
  H       22.937      57.779    -125.414
  H       24.278      57.864    -124.243
  H       23.622      59.360    -124.965
  H       21.917      54.641    -114.578
  H       23.171      54.813    -115.783
  H       22.237      53.339    -115.698

 3  4  5  6  7  8  9  10  11  12  13  23  27  28  29  30  32 0
 6-311+G(2d,p)
 ****
 34  35 0
 6-311+G(2d,p)
 ****
 1  2  14  15  16  17  18  19  20  21  22  24  25  26 0
 3-21G
 ****
 31  33  36  37  38  39  40  41  42  43  44  45  46 0
 3-21G
 ****


