%nproc=1
%NoSave
%Mem=1900MB
#P OB98/GEN NMR

erre ene a

0 1
  C       86.055      43.404      57.969
  O       85.660      44.769      58.199
  P       84.538      45.426      57.256
  C       86.262      46.259      55.483
  O       85.068      45.538      55.745
  C       87.074      45.600      54.357
  O       86.341      45.671      53.100
  C       88.449      46.236      54.110
  O       89.330      45.188      53.686
  C       88.171      47.182      52.954
  O       89.341      47.561      52.246
  C       87.191      46.329      52.139
  N       86.396      47.088      51.171
  C       86.397      46.661      49.849
  O       87.071      45.725      49.422
  N       85.602      47.379      48.992
  C       84.861      48.479      49.310
  O       84.192      49.098      48.489
  C       84.922      48.900      50.716
  C       85.673      48.199      51.566
  O       84.553      46.956      57.736
  O       83.163      44.855      57.403
  H       89.064      48.162      51.531
  H       83.639      47.271      57.858
  H       85.580      47.075      48.030
  H       84.343      49.765      51.009
  H       85.720      48.485      52.612
  H       87.742      45.541      51.614
  H       87.699      48.094      53.336
  H       88.854      46.742      54.993
  H       87.183      44.534      54.597
  H       86.872      46.288      56.390
  H       86.004      47.287      55.209
  P       90.443      44.658      54.721
  C       92.568      46.121      54.289
  O       91.405      45.893      55.054
  O       91.333      43.751      53.742
  O       89.893      43.904      55.889
  H       91.527      44.189      52.898
  H       92.385      45.954      53.222
  H       93.366      45.458      54.627
  H       92.885      47.156      54.431
  H       86.805      43.125      58.679
  H       86.448      43.309      56.979
  H       85.205      42.763      58.078

 3  4  5  6  7  8  9  10  11  12  13  23  28  29  30  31  32 0
 6-311+G(2d,p)
 ****
 33  34 0
 6-311+G(2d,p)
 ****
 1  2  14  15  16  17  18  19  20  21  22  24  25  26 0
 3-21G
 ****
 27  35  36  37  38  39  40  41  42  43  44  45 0
 3-21G
 ****


