%nproc=1
%NoSave
%Mem=1900MB
#P OB98/GEN NMR

erre ene a

0 1
  C       27.887     352.242    -633.229
  O       26.916     352.251    -634.251
  H       27.408     352.544    -632.292
  H       28.684     352.958    -633.452
  H       28.304     351.241    -633.101
  P       27.352     351.890    -635.753
  C       25.173     350.604    -636.202
  O       25.973     351.723    -636.569
  C       23.683     350.917    -636.360
  O       23.205     351.592    -635.164
  C       23.366     351.816    -637.561
  O       22.261     351.281    -638.290
  C       22.956     353.140    -636.920
  O       22.117     353.931    -637.755
  C       22.324     352.638    -635.613
  N       22.179     353.706    -634.634
  C       20.874     354.006    -634.232
  O       19.923     353.381    -634.703
  N       20.672     355.040    -633.359
  C       21.681     355.748    -632.952
  N       21.410     356.781    -632.112
  C       23.074     355.482    -633.368
  C       23.250     354.454    -634.197
  O       28.295     350.736    -635.871
  O       27.952     353.250    -636.347
  H       21.278     353.446    -637.905
  H       28.545     353.038    -637.103
  H       23.878     356.103    -633.008
  H       24.237     354.184    -634.563
  H       21.337     352.199    -635.802
  H       23.858     353.725    -636.695
  H       24.208     351.949    -638.238
  H       23.138     349.969    -636.419
  H       20.440     356.931    -631.858
  H       25.404     350.334    -635.166
  H       22.105     357.413    -631.752
  H       25.433     349.768    -636.862
  P       22.454     351.168    -639.883
  C       21.992     348.609    -639.860
  O       21.637     349.881    -640.390
  O       23.991     350.739    -640.039
  O       22.165     352.439    -640.609
  H       24.507     351.475    -640.412
  H       21.365     347.856    -640.289
  H       21.864     348.617    -638.798
  H       23.014     348.398    -640.095

 6  7  8  9  10  11  12  13  14  15  16  26  30  31  32  33  35 0
 6-311+G(2d,p)
 ****
 37  38 0
 6-311+G(2d,p)
 ****
 1  2  3  4  5  17  18  19  20  21  22  23  24  25 0
 3-21G
 ****
 27  28  29  34  36  39  40  41  42  43  44  45  46 0
 3-21G
 ****


