%nproc=1
%NoSave
%Mem=1900MB
#P OB98/GEN NMR

erre ene a

0 1
  C     -331.968     486.576    -867.930
  O     -330.925     487.532    -867.818
  P     -330.413     488.012    -866.371
  C     -327.851     488.041    -866.740
  O     -329.048     488.827    -866.660
  C     -327.076     488.381    -868.018
  O     -327.807     487.940    -869.182
  C     -326.814     489.877    -868.221
  O     -325.739     490.311    -867.394
  C     -326.501     489.902    -869.715
  O     -325.133     489.549    -869.973
  C     -327.475     488.829    -870.282
  N     -328.648     489.414    -870.885
  C     -328.531     489.794    -872.224
  O     -327.452     489.661    -872.813
  N     -329.611     490.354    -872.865
  C     -330.704     490.551    -872.223
  N     -331.760     491.131    -872.888
  C     -330.883     490.195    -870.781
  C     -329.835     489.631    -870.186
  O     -330.308     486.937    -865.342
  O     -331.444     489.184    -865.983
  H     -325.012     489.665    -870.945
  H     -332.311     488.799    -865.719
  H     -331.828     490.365    -870.271
  H     -329.855     489.341    -869.149
  H     -326.966     488.206    -871.029
  H     -326.674     490.904    -870.141
  H     -327.718     490.425    -868.032
  H     -326.124     487.827    -867.998
  H     -331.581     491.380    -873.845
  H     -328.119     486.978    -866.742
  H     -332.642     491.344    -872.481
  H     -327.241     488.232    -865.847
  P     -325.768     491.772    -866.767
  C     -324.470     491.017    -864.683
  O     -324.507     491.918    -865.778
  O     -327.085     492.231    -866.221
  O     -325.342     492.709    -868.021
  H     -325.933     493.483    -868.041
  H     -323.460     490.992    -864.277
  H     -324.783     490.030    -864.977
  H     -325.143     491.393    -863.897
  H     -332.168     486.385    -868.964
  H     -332.851     486.955    -867.460
  H     -331.671     485.667    -867.450

 3  4  5  6  7  8  9  10  11  12  13  23  27  28  29  30  32 0
 6-311+G(2d,p)
 ****
 34  35 0
 6-311+G(2d,p)
 ****
 1  2  14  15  16  17  18  19  20  21  22  24  25  26 0
 3-21G
 ****
 31  33  36  37  38  39  40  41  42  43  44  45  46 0
 3-21G
 ****


