%nproc=1
%NoSave
%Mem=1900MB
#P OB98/GEN NMR

erre ene a

0 1
  C      455.148     778.142      87.376
  O      456.547     778.318      87.388
  H      454.683     778.984      87.894
  H      454.870     777.216      87.891
  H      454.778     778.118      86.342
  P      457.424     777.160      86.699
  C      457.612     778.213      84.356
  O      458.283     777.922      85.581
  C      458.551     777.983      83.166
  O      457.775     778.092      81.945
  C      459.683     778.998      83.086
  O      460.881     778.337      82.641
  C      459.223     779.984      82.025
  O      460.309     780.643      81.385
  C      458.409     779.065      81.098
  N      457.175     780.883      76.491
  C      458.164     780.064      76.899
  N      458.412     779.619      78.155
  C      457.479     780.069      79.013
  C      456.419     780.916      78.746
  C      456.283     781.346      77.404
  N      455.306     782.202      76.983
  N      455.710     781.190      79.900
  C      456.326     780.504      80.847
  N      457.413     779.824      80.355
  O      456.657     775.966      86.226
  O      458.516     776.865      87.832
  H      460.674     781.311      82.009
  H      458.870     777.688      88.218
  H      458.848     779.728      76.129
  H      456.035     780.483      81.891
  H      459.038     778.551      80.370
  H      458.580     780.742      82.481
  H      459.884     779.497      84.043
  H      458.922     776.951      83.209
  H      457.265     779.251      84.353
  H      455.266     782.442      76.006
  H      454.613     782.538      77.647
  H      456.739     777.552      84.289
  P      462.153     778.326      83.617
  C      461.812     776.125      84.931
  O      462.554     776.800      83.922
  O      462.072     779.209      84.818
  O      463.334     778.788      82.638
  H      463.955     779.367      83.138
  H      462.177     775.125      85.033
  H      460.778     776.101      84.657
  H      461.923     776.642      85.861

 6  7  8  9  10  11  12  13  14  15  25  28  32  33  34  35 0
 6-311+G(2d,p)
 ****
 36  39  40 0
 6-311+G(2d,p)
 ****
 1  2  3  4  5  16  17  18  19  20  21  22  23  24 0
 3-21G
 ****
 26  27  29  30  31  37  38  41  42  43  44  45  46  47 0
 3-21G
 ****
 48 0
 3-21G
 ****


