%nproc=1
%NoSave
%Mem=1900MB
#P OB98/GEN NMR

erre ene a

0 1
  C      -57.860     125.867      86.469
  O      -57.485     126.494      85.256
  H      -58.595     126.498      86.976
  H      -56.993     125.745      87.125
  H      -58.315     124.893      86.269
  P      -56.353     125.804      84.360
  C      -54.459     126.891      85.750
  O      -55.052     125.681      85.289
  C      -53.039     127.034      85.207
  O      -52.539     128.363      85.455
  C      -52.031     126.084      85.846
  O      -52.195     124.773      85.345
  C      -50.726     126.768      85.467
  O      -50.376     126.493      84.102
  C      -51.106     128.260      85.645
  N      -50.713     128.813      86.937
  C      -49.435     129.387      86.996
  O      -48.711     129.393      86.001
  N      -49.016     129.921      88.190
  C      -49.807     129.923      89.217
  N      -49.331     130.471      90.366
  C      -51.171     129.363      89.184
  C      -51.550     128.819      88.029
  O      -56.100     126.427      83.021
  O      -56.842     124.286      84.220
  H      -51.155     126.740      83.566
  H      -57.356     124.166      83.400
  H      -51.803     129.395      90.063
  H      -52.538     128.381      87.920
  H      -50.639     128.871      84.858
  H      -49.890     126.437      86.086
  H      -52.127     126.105      86.936
  H      -53.075     126.892      84.119
  H      -48.395     130.862      90.335
  H      -54.443     126.847      86.842
  H      -49.909     130.675      91.170
  H      -55.065     127.755      85.451
  P      -52.004     123.488      86.285
  C      -49.451     123.403      85.970
  O      -50.518     123.604      86.886
  O      -52.319     122.179      85.643
  O      -52.917     123.811      87.557
  H      -53.873     123.656      87.347
  H      -48.517     123.504      86.482
  H      -49.510     124.131      85.188
  H      -49.522     122.422      85.549

 6  7  8  9  10  11  12  13  14  15  16  26  30  31  32  33  35 0
 6-311+G(2d,p)
 ****
 37  38 0
 6-311+G(2d,p)
 ****
 1  2  3  4  5  17  18  19  20  21  22  23  24  25 0
 3-21G
 ****
 27  28  29  34  36  39  40  41  42  43  44  45  46 0
 3-21G
 ****


