%nproc=1
%NoSave
%Mem=1900MB
#P OB98/GEN NMR

erre ene a

0 1
  C      180.597      12.996    -365.413
  O      181.783      13.598    -364.934
  H      180.042      12.589    -364.565
  H      180.837      12.177    -366.101
  H      179.978      13.740    -365.921
  P      182.777      14.212    -366.034
  C      183.046      16.283    -364.523
  O      183.710      15.229    -365.211
  C      184.009      16.984    -363.565
  O      184.182      16.147    -362.391
  C      185.399      17.234    -364.163
  O      185.906      18.475    -363.669
  C      186.232      16.096    -363.595
  O      187.624      16.396    -363.582
  C      185.596      15.926    -362.218
  N      189.206      12.914    -360.263
  C      189.190      14.231    -360.557
  N      188.171      14.963    -361.058
  C      187.066      14.205    -361.193
  C      186.931      12.852    -360.935
  C      188.076      12.191    -360.457
  N      188.116      10.843    -360.185
  N      185.653      12.425    -361.245
  C      185.025      13.506    -361.677
  N      185.848      14.600    -361.678
  O      182.121      14.786    -367.244
  O      183.766      12.984    -366.309
  H      187.745      17.282    -363.176
  H      184.069      12.575    -365.472
  H      190.121      14.770    -360.380
  H      183.990      13.542    -362.007
  H      185.975      16.654    -361.484
  H      186.087      15.193    -364.201
  H      185.402      17.240    -365.253
  H      183.552      17.919    -363.223
  H      182.191      15.885    -363.960
  H      188.980      10.452    -359.842
  H      187.281      10.285    -360.314
  H      182.670      16.991    -365.272
  P      185.983      19.736    -364.660
  C      184.999      21.439    -362.995
  O      186.123      21.073    -363.783
  O      184.937      19.784    -365.724
  O      187.447      19.590    -365.300
  H      187.401      19.791    -366.257
  H      185.216      22.341    -362.461
  H      184.781      20.656    -362.299
  H      184.153      21.596    -363.631

 6  7  8  9  10  11  12  13  14  15  25  28  32  33  34  35 0
 6-311+G(2d,p)
 ****
 36  39  40 0
 6-311+G(2d,p)
 ****
 1  2  3  4  5  16  17  18  19  20  21  22  23  24 0
 3-21G
 ****
 26  27  29  30  31  37  38  41  42  43  44  45  46  47 0
 3-21G
 ****
 48 0
 3-21G
 ****


