%nproc=1
%NoSave
%Mem=1900MB
#P OB98/GEN NMR

erre ene a

0 1
  C     -104.738    -207.634    -264.609
  O     -104.557    -208.532    -265.684
  H     -105.802    -207.395    -264.531
  H     -104.186    -206.708    -264.788
  H     -104.414    -208.086    -263.669
  P     -103.071    -209.041    -266.013
  C     -103.678    -210.265    -268.215
  O     -103.040    -209.146    -267.618
  C     -104.254    -209.881    -269.575
  O     -105.381    -208.990    -269.431
  C     -103.292    -209.133    -270.492
  O     -102.283    -209.955    -271.053
  C     -104.269    -208.620    -271.534
  O     -104.651    -209.696    -272.410
  C     -105.450    -208.178    -270.639
  N     -105.403    -206.757    -270.304
  C     -106.243    -205.911    -271.041
  O     -106.971    -206.363    -271.925
  N     -106.218    -204.561    -270.782
  C     -105.407    -204.094    -269.884
  N     -105.419    -202.749    -269.673
  C     -104.491    -204.945    -269.100
  C     -104.541    -206.249    -269.357
  O     -102.619    -210.261    -265.280
  O     -102.143    -207.762    -265.758
  H     -105.063    -210.381    -271.852
  H     -101.208    -208.026    -265.938
  H     -103.814    -204.501    -268.384
  H     -103.893    -206.938    -268.826
  H     -106.411    -208.398    -271.122
  H     -103.857    -207.826    -272.158
  H     -102.849    -208.270    -269.977
  H     -104.628    -210.799    -270.045
  H     -106.056    -202.191    -270.222
  H     -104.463    -210.611    -267.539
  H     -104.767    -202.289    -269.048
  H     -102.954    -211.072    -268.363
  P     -101.103    -209.214    -271.854
  C     -100.610    -211.258    -273.406
  O     -101.034    -209.908    -273.297
  O      -99.786    -209.727    -271.108
  O     -101.200    -207.722    -271.892
  H      -99.472    -209.064    -270.464
  H     -100.625    -211.555    -274.434
  H     -101.270    -211.886    -272.844
  H      -99.616    -211.352    -273.022

 6  7  8  9  10  11  12  13  14  15  16  26  30  31  32  33  35 0
 6-311+G(2d,p)
 ****
 37  38 0
 6-311+G(2d,p)
 ****
 1  2  3  4  5  17  18  19  20  21  22  23  24  25 0
 3-21G
 ****
 27  28  29  34  36  39  40  41  42  43  44  45  46 0
 3-21G
 ****


