%nproc=1
%NoSave
%Mem=1900MB
#P OB98/GEN NMR

erre ene a

0 1
  C       70.323       0.789      70.047
  O       70.598       2.077      70.554
  H       70.627       0.755      68.998
  H       69.249       0.589      70.107
  H       70.872       0.022      70.596
  P       70.552       2.310      72.136
  C       68.585       2.382      73.806
  O       69.135       1.763      72.653
  C       67.059       2.478      73.696
  O       66.720       3.524      72.751
  C       66.452       1.177      73.158
  O       65.118       0.978      73.616
  C       66.429       1.415      71.657
  O       65.470       0.606      70.977
  C       66.131       2.911      71.592
  N       66.215       2.924      66.495
  C       65.719       1.966      67.358
  N       65.171       0.869      66.785
  N       65.777       2.064      68.660
  C       66.415       3.178      69.091
  C       66.968       4.186      68.335
  C       66.867       4.083      66.894
  O       67.310       4.892      66.084
  N       67.540       5.150      69.127
  C       67.339       4.726      70.358
  N       66.638       3.545      70.389
  O       70.381       3.897      72.279
  O       71.743       1.815      72.898
  H       65.567      -0.305      71.311
  H       70.684       4.193      73.156
  H       66.119       2.813      65.502
  H       67.662       5.239      71.254
  H       65.050       3.093      71.629
  H       67.411       1.157      71.254
  H       65.286       0.669      65.804
  H       67.047       0.302      73.406
  H       65.093       0.040      67.380
  H       66.630       2.771      74.660
  H       69.029       3.378      73.876
  H       68.874       1.836      74.705
  P       64.894       0.278      75.040
  C       66.031      -1.750      76.302
  O       65.691      -1.103      75.096
  O       63.360      -0.167      75.007
  O       65.197       1.156      76.214
  H       62.851       0.317      75.683
  H       66.560      -2.654      76.085
  H       65.139      -1.981      76.847
  H       66.652      -1.106      76.890

 6  7  8  9  10  11  12  13  14  15  26  29  33  34 0
 6-311+G(2d,p)
 ****
 36  38  39  40  41 0
 6-311+G(2d,p)
 ****
 1  2  3  4  5  16  17  18  19  20  21  22  23  24  25 0
 3-21G
 ****
 27  28  30  31  32  35  37  42  43  44  45  46  47 0
 3-21G
 ****
 48  49 0
 3-21G
 ****


