%nproc=1
%NoSave
%Mem=1900MB
#P OB98/GEN NMR

erre ene a

0 1
  C      161.479    -185.447     991.782
  O      160.916    -184.323     992.433
  H      160.856    -185.702     990.921
  H      161.505    -186.305     992.461
  H      162.491    -185.220     991.426
  P      161.693    -183.675     993.675
  C      162.517    -181.633     992.341
  O      162.895    -182.801     993.061
  C      163.468    -180.481     992.658
  O      163.147    -179.951     993.972
  C      164.949    -180.888     992.654
  O      165.705    -179.810     992.102
  C      165.272    -181.034     994.132
  O      166.660    -180.812     994.408
  C      164.357    -179.984     994.760
  N      166.181    -179.871     999.473
  C      166.731    -179.396     998.300
  N      167.950    -178.819     998.378
  N      166.121    -179.466     997.134
  C      164.899    -180.052     997.198
  C      164.250    -180.565     998.303
  C      164.938    -180.489     999.573
  O      164.511    -180.908    1000.649
  N      163.029    -181.099     997.968
  C      162.945    -180.920     996.664
  N      164.056    -180.294     996.151
  O      162.110    -184.635     994.744
  O      160.679    -182.570     994.231
  H      166.772    -180.882     995.375
  H      160.205    -182.902     995.016
  H      166.694    -179.791    1000.328
  H      162.105    -181.213     996.039
  H      164.800    -178.969     994.744
  H      165.002    -182.040     994.469
  H      168.459    -178.719     999.237
  H      165.142    -181.814     992.107
  H      168.353    -178.449     997.528
  H      163.279    -179.670     991.936
  H      161.496    -181.356     992.641
  H      162.518    -181.846     991.273
  P      166.555    -180.091     990.758
  C      164.549    -179.358     989.318
  O      165.518    -180.373     989.567
  O      167.676    -181.066     990.892
  O      167.103    -178.614     990.388
  H      167.960    -178.725     989.922
  H      163.919    -179.658     988.507
  H      165.046    -178.445     989.065
  H      163.955    -179.209     990.195

 6  7  8  9  10  11  12  13  14  15  26  29  33  34 0
 6-311+G(2d,p)
 ****
 36  38  39  40  41 0
 6-311+G(2d,p)
 ****
 1  2  3  4  5  16  17  18  19  20  21  22  23  24  25 0
 3-21G
 ****
 27  28  30  31  32  35  37  42  43  44  45  46  47 0
 3-21G
 ****
 48  49 0
 3-21G
 ****


