%nproc=1
%NoSave
%Mem=1900MB
#P OB98/GEN NMR

erre ene a

0 1
  C     -281.597    -196.580     232.367
  O     -280.763    -196.855     233.477
  H     -281.170    -197.058     231.479
  H     -281.649    -195.501     232.195
  H     -282.600    -196.980     232.537
  P     -281.232    -196.250     234.886
  C     -281.208    -193.867     235.942
  O     -280.975    -194.668     234.795
  C     -280.246    -192.672     235.964
  O     -278.885    -193.172     236.117
  C     -280.269    -191.831     234.674
  O     -279.913    -190.482     235.022
  C     -279.140    -192.464     233.875
  O     -278.763    -191.643     232.792
  C     -278.122    -192.668     234.997
  N     -273.698    -193.240     232.497
  C     -274.482    -192.161     232.703
  N     -275.638    -192.083     233.389
  C     -275.964    -193.276     233.913
  C     -275.256    -194.464     233.797
  C     -274.073    -194.425     233.044
  N     -273.276    -195.525     232.825
  N     -275.905    -195.485     234.473
  C     -276.980    -194.920     234.987
  N     -277.060    -193.592     234.670
  O     -280.103    -196.764     235.900
  O     -282.603    -196.640     235.330
  H     -278.674    -190.708     233.079
  H     -280.400    -197.581     236.341
  H     -274.132    -191.232     232.250
  H     -277.733    -195.423     235.585
  H     -277.658    -191.726     235.307
  H     -279.450    -193.424     233.451
  H     -281.236    -191.836     234.170
  H     -280.459    -192.057     236.847
  H     -281.056    -194.484     236.835
  H     -282.241    -193.503     235.929
  H     -272.450    -195.413     232.258
  H     -273.551    -196.414     233.210
  P     -280.892    -189.280     234.592
  C     -281.645    -188.181     232.338
  O     -280.719    -189.012     233.018
  O     -280.156    -188.003     235.226
  O     -282.298    -189.381     235.087
  H     -280.815    -187.313     235.428
  H     -281.375    -188.117     231.305
  H     -281.632    -187.203     232.771
  H     -282.627    -188.596     232.425

 6  7  8  9  10  11  12  13  14  15  25  28  32  33  34  35 0
 6-311+G(2d,p)
 ****
 36  37  40 0
 6-311+G(2d,p)
 ****
 1  2  3  4  5  16  17  18  19  20  21  22  23  24 0
 3-21G
 ****
 26  27  29  30  31  38  39 41  42  43  44  45  46  47  48 0
 3-21G
 ****


