%nproc=1
%NoSave
%Mem=1900MB
#P OB98/GEN NMR

erre ene a

0 1
  C       72.777      71.510    -119.195
  O       73.666      70.779    -118.370
  P       74.815      71.541    -117.557
  C       76.101      72.181    -119.727
  O       76.127      71.527    -118.477
  C       76.688      71.290    -120.830
  O       76.455      71.945    -122.101
  C       78.195      71.073    -120.744
  O       78.537      69.933    -121.535
  C       78.728      72.326    -121.402
  O       80.071      72.171    -121.852
  C       77.683      72.591    -122.515
  N       77.459      74.034    -122.715
  C       78.287      74.677    -123.631
  O       79.120      74.083    -124.313
  N       78.184      76.041    -123.675
  C       77.383      76.797    -122.871
  O       77.524      78.003    -122.706
  C       76.371      76.054    -122.104
  C       76.470      74.724    -122.041
  O       75.161      70.511    -116.383
  O       74.428      72.878    -117.027
  H       80.025      71.841    -122.779
  H       74.677      70.751    -115.571
  H       78.883      76.517    -124.232
  H       75.620      76.619    -121.570
  H       75.768      74.153    -121.440
  H       78.000      72.162    -123.473
  H       78.717      73.146    -120.673
  H       78.575      70.954    -119.724
  H       76.159      70.330    -120.842
  H       76.655      73.121    -119.654
  H       75.073      72.447    -119.995
  P       79.204      68.678    -120.794
  C       81.659      69.399    -121.001
  O       80.662      68.498    -121.437
  O       78.374      67.440    -120.727
  O       79.531      69.254    -119.334
  H       79.661      68.515    -118.711
  H       82.633      68.906    -121.065
  H       81.490      69.716    -119.968
  H       81.662      70.276    -121.653
  H       72.083      70.838    -119.655
  H       73.333      72.022    -119.953
  H       72.244      72.222    -118.601

 3  4  5  6  7  8  9  10  11  12  13  23  28  29  30  31  32 0
 6-311+G(2d,p)
 ****
 33  34 0
 6-311+G(2d,p)
 ****
 1  2  14  15  16  17  18  19  20  21  22  24  25  26  27 0
 3-21G
 ****
 35  36  37  38  39  40  41  42  43  44  45 0
 3-21G
 ****


