%nproc=1
%NoSave
%Mem=1900MB
#P OB98/GEN NMR

erre ene a

0 1
  C        6.218     494.619      29.611
  O        5.853     493.306      29.170
  P        6.258     492.911      27.672
  C        4.147     491.928      26.531
  O        5.360     491.655      27.224
  C        3.181     490.738      26.655
  O        2.538     490.696      27.939
  C        2.052     490.770      25.625
  O        2.533     490.284      24.378
  C        1.023     489.851      26.263
  O        1.304     488.457      25.983
  C        1.201     490.130      27.766
  N       -3.164     490.446      30.327
  C       -2.525     489.336      29.779
  N       -3.134     488.136      29.970
  N       -1.406     489.386      29.118
  C       -0.911     490.660      29.013
  C       -1.436     491.826      29.541
  C       -2.683     491.741      30.265
  O       -3.265     492.676      30.788
  N       -0.621     492.901      29.278
  C        0.323     492.405      28.493
  N        0.222     491.036      28.351
  O        7.731     492.299      27.828
  O        6.238     494.076      26.731
  H        0.676     487.895      26.465
  H        8.382     492.911      27.430
  H       -4.029     490.332      30.827
  H        1.108     492.974      28.027
  H        1.171     489.219      28.359
  H        0.022     490.041      25.896
  H       -4.009     488.019      30.470
  H        1.651     491.793      25.522
  H       -2.684     487.320      29.582
  H        3.783     489.823      26.534
  H        4.352     492.116      25.472
  H        3.697     492.842      26.933
  P        2.349     491.222      23.084
  C        0.677     490.115      21.430
  O        2.035     490.288      21.847
  O        3.835     491.754      22.801
  O        1.406     492.366      23.293
  H        3.823     492.707      22.617
  H        0.648     489.930      20.367
  H        0.078     490.998      21.668
  H        0.251     489.246      21.955
  H        5.894     494.759      30.621
  H        5.752     495.349      28.982
  H        7.281     494.730      29.559

 3  4  5  6  7  8  9  10  11  12  23  26  30  31 0
 6-311+G(2d,p)
 ****
 33  35  36  37  38 0
 6-311+G(2d,p)
 ****
 1  2  13  14  15  16  17  18  19  20  21  22  24  25 0
 3-21G
 ****
 27  28  29  32  34  39  40  41  42  43  44  45  46  47  48  49 0
 3-21G
 ****


