%nproc=1
%NoSave
%Mem=1900MB
#P OB98/GEN NMR

erre ene a

0 1
  C      559.954     600.041    -159.340
  O      558.930     600.453    -160.225
  H      559.580     600.047    -158.312
  H      560.258     599.020    -159.598
  H      560.824     600.700    -159.428
  P      558.320     601.918    -160.000
  C      557.181     603.616    -161.595
  O      557.397     602.247    -161.274
  C      556.737     603.742    -163.053
  O      557.906     603.588    -163.904
  C      555.682     602.714    -163.498
  O      554.505     603.377    -163.977
  C      556.333     601.980    -164.662
  O      555.429     601.705    -165.734
  C      557.458     602.921    -165.097
  N      559.013     600.777    -169.444
  C      558.085     601.736    -169.202
  N      557.796     602.343    -168.031
  C      558.585     601.878    -167.063
  C      559.586     600.928    -167.154
  C      559.777     600.341    -168.414
  N      560.679     599.320    -168.652
  N      560.178     600.703    -165.927
  C      559.525     601.480    -165.092
  N      558.541     602.198    -165.718
  O      559.587     602.879    -160.189
  O      557.661     602.123    -158.674
  H      554.753     601.102    -165.374
  H      559.622     603.518    -159.453
  H      557.503     602.059    -170.057
  H      559.687     601.540    -164.014
  H      557.098     603.686    -165.802
  H      556.737     601.020    -164.291
  H      555.411     602.017    -162.691
  H      556.359     604.760    -163.213
  H      558.115     604.178    -161.459
  H      560.662     598.888    -169.568
  H      561.164     598.924    -167.873
  H      556.428     604.027    -160.922
  P      553.305     603.574    -162.930
  C      551.883     605.722    -162.551
  O      552.377     604.759    -163.476
  O      554.033     604.231    -161.660
  O      552.599     602.311    -162.569
  H      553.548     604.024    -160.848
  H      551.284     606.441    -163.070
  H      552.705     606.217    -162.078
  H      551.288     605.232    -161.809

 6  7  8  9  10  11  12  13  14  15  25  28  32  33  34  35 0
 6-311+G(2d,p)
 ****
 36  39  40 0
 6-311+G(2d,p)
 ****
 1  2  3  4  5  16  17  18  19  20  21  22  23  24 0
 3-21G
 ****
 26  27  29  30  31  37  38  41  42  43  44  45  46  47  48 0
 3-21G
 ****


