%nproc=1
%NoSave
%Mem=1900MB
#P OB98/GEN NMR

erre ene a

0 1
  C       11.163     -15.248       4.599
  O       11.555     -14.038       3.987
  H       11.080     -16.017       3.828
  H       10.192     -15.134       5.085
  H       11.912     -15.566       5.330
  P       11.690     -12.724       4.894
  C        9.344     -11.925       4.173
  O       10.199     -12.259       5.261
  C        8.502     -10.691       4.521
  O        7.713     -11.012       5.692
  C        9.365      -9.462       4.840
  O        9.000      -8.314       4.078
  C        9.286      -9.369       6.359
  O        9.486      -8.069       6.875
  C        7.919      -9.982       6.676
  N        7.818     -10.532       8.027
  C        7.224      -9.733       8.999
  O        6.769      -8.608       8.808
  N        7.156     -10.281      10.255
  C        7.623     -11.507      10.624
  O        7.530     -11.945      11.764
  C        8.265     -12.292       9.559
  C        8.333     -11.777       8.330
  O       12.561     -11.647       4.342
  O       12.248     -13.272       6.291
  H        8.938      -7.458       6.338
  H       13.194     -13.045       6.375
  H        6.714      -9.718      10.964
  H        8.658     -13.265       9.820
  H        8.798     -12.330       7.520
  H        7.129      -9.239       6.563
  H       10.070     -10.006       6.786
  H       10.408      -9.633       4.550
  H        7.807     -10.495       3.697
  H        8.696     -12.784       3.979
  H        9.947     -11.722       3.281
  P        9.680      -7.870       2.707
  C       11.535      -6.261       3.649
  O       11.203      -7.479       2.995
  O        8.892      -6.925       1.864
  O        9.818      -9.250       1.885
  H        9.726      -9.016       0.939
  H       12.598      -6.187       3.746
  H       11.086      -6.244       4.620
  H       11.171      -5.436       3.073

 6  7  8  9  10  11  12  13  14  15  16  26  31  32  33  34  35 0
 6-311+G(2d,p)
 ****
 36  37 0
 6-311+G(2d,p)
 ****
 1  2  3  4  5  17  18  19  20  21  22  23  24  25 0
 3-21G
 ****
 27  28  29  30  38  39  40  41  42  43  44  45 0
 3-21G
 ****


