%nproc=1
%NoSave
%Mem=1900MB
#P OB98/GEN NMR

erre ene a

0 1
  C       19.535     -57.124      -2.103
  O       19.985     -56.934      -3.448
  P       19.002     -56.407      -4.603
  C       20.839     -55.429      -6.107
  O       19.767     -56.363      -6.017
  C       22.150     -55.953      -5.506
  O       22.634     -57.109      -6.244
  C       23.300     -54.936      -5.477
  O       24.086     -55.261      -4.326
  C       24.056     -55.274      -6.751
  O       25.388     -54.783      -6.768
  C       23.951     -56.795      -6.744
  N       27.030     -59.713      -9.612
  C       27.002     -59.473      -8.283
  N       26.130     -58.716      -7.588
  C       25.185     -58.205      -8.400
  C       25.080     -58.370      -9.771
  C       26.069     -59.157     -10.387
  N       26.131     -59.366     -11.746
  N       23.997     -57.668     -10.266
  C       23.468     -57.084      -9.209
  N       24.149     -57.381      -8.056
  O       18.282     -55.142      -4.264
  O       17.947     -57.599      -4.795
  H       25.906     -55.278      -6.106
  H       17.046     -57.224      -4.836
  H       27.788     -59.948      -7.701
  H       22.611     -56.424      -9.224
  H       24.682     -57.243      -6.061
  H       23.532     -54.834      -7.609
  H       22.965     -53.897      -5.443
  H       21.929     -56.302      -4.491
  H       20.543     -54.511      -5.586
  H       26.930     -59.865     -12.104
  H       25.504     -58.858     -12.352
  H       20.994     -55.175      -7.164
  P       24.274     -54.226      -3.118
  C       25.571     -55.568      -1.368
  O       25.654     -54.604      -2.402
  O       23.103     -54.113      -2.199
  O       24.598     -52.827      -3.831
  H       24.430     -52.099      -3.206
  H       25.163     -55.105      -0.465
  H       26.573     -55.948      -1.153
  H       24.932     -56.406      -1.665
  H       20.346     -57.478      -1.502
  H       18.742     -57.842      -2.090
  H       19.180     -56.194      -1.711

 3  4  5  6  7  8  9  10  11  12  22  25  29  30  31  32 0
 6-311+G(2d,p)
 ****
 33  36  37 0
 6-311+G(2d,p)
 ****
 1  2  13  14  15  16  17  18  19  20  21  23  24  26 0
 3-21G
 ****
 27  28  34  35  38  39  40  41  42  43  44  45  46  47  48 0
 3-21G
 ****


