%nproc=1
%NoSave
%Mem=1900MB
#P OB98/GEN NMR

erre ene a

0 1
  C      -43.090    -891.340    -246.317
  O      -44.115    -892.060    -246.977
  H      -43.213    -891.460    -245.240
  H      -43.166    -890.280    -246.560
  H      -42.108    -891.730    -246.607
  P      -44.067    -892.080    -248.578
  C      -42.803    -894.350    -248.644
  O      -42.782    -892.970    -248.983
  C      -41.793    -895.130    -249.485
  O      -40.445    -894.690    -249.129
  C      -41.846    -896.650    -249.291
  O      -41.543    -897.270    -250.554
  C      -40.681    -896.920    -248.356
  O      -40.232    -898.270    -248.412
  C      -39.677    -895.890    -248.862
  N      -35.465    -897.830    -246.899
  C      -36.284    -898.300    -247.896
  N      -35.939    -899.480    -248.465
  N      -37.368    -897.680    -248.303
  C      -37.582    -896.500    -247.669
  C      -36.839    -895.920    -246.667
  C      -35.665    -896.630    -246.208
  O      -34.904    -896.260    -245.306
  N      -37.402    -894.730    -246.265
  C      -38.467    -894.580    -247.037
  N      -38.617    -895.640    -247.904
  O      -43.624    -890.580    -248.939
  O      -45.344    -892.470    -249.251
  H      -39.878    -898.430    -249.307
  H      -44.411    -890.030    -249.109
  H      -34.663    -898.350    -246.607
  H      -39.156    -893.750    -247.007
  H      -39.202    -896.200    -249.799
  H      -40.977    -896.700    -247.310
  H      -35.103    -900.000    -248.238
  H      -42.809    -897.030    -248.921
  H      -36.509    -899.830    -249.234
  H      -41.941    -894.860    -250.543
  H      -43.808    -894.750    -248.830
  H      -42.565    -894.460    -247.586
  P      -42.654    -898.230    -251.205
  C      -43.606    -896.360    -252.740
  O      -43.865    -897.320    -251.720
  O      -43.286    -898.970    -249.925
  O      -42.110    -899.220    -252.188
  H      -43.622    -899.840    -250.179
  H      -44.509    -895.835    -252.973
  H      -43.246    -896.858    -253.616
  H      -42.868    -895.665    -252.397

 6  7  8  9  10  11  12  13  14  15  26  29  33  34 0
 6-311+G(2d,p)
 ****
 36  38  39  40  41 0
 6-311+G(2d,p)
 ****
 1  2  3  4  5  16  17  18  19  20  21  22  23  24  25 0
 3-21G
 ****
 27  28  30  31  32  35  37  42  43  44  45  46  47 0
 3-21G
 ****
 48  49 0
 3-21G
 ****


