%nproc=1
%NoSave
%Mem=1900MB
#P OB98/GEN NMR

erre ene a

0 1
  C      -74.497      83.945    -899.340
  O      -75.160      84.497    -898.230
  H      -75.241      83.476    -900.000
  H      -73.783      83.173    -899.020
  H      -73.969      84.714    -899.910
  P      -74.315      85.370    -897.190
  C      -74.646      83.880    -895.100
  O      -73.732      84.363    -896.090
  C      -73.900      83.063    -894.050
  O      -73.146      81.995    -894.690
  C      -72.851      83.880    -893.270
  O      -73.494      84.691    -892.280
  C      -71.991      82.766    -892.700
  O      -72.591      82.169    -891.540
  C      -71.956      81.759    -893.890
  N      -70.735      81.851    -894.700
  C      -69.568      81.460    -894.090
  O      -69.503      81.067    -892.910
  N      -68.439      81.563    -894.860
  C      -68.362      82.093    -896.120
  O      -67.291      82.229    -896.730
  C      -69.638      82.532    -896.700
  C      -70.749      82.388    -895.980
  O      -75.025      86.578    -896.630
  O      -73.016      85.796    -898.020
  H      -72.071      81.381    -891.330
  H      -73.082      86.737    -898.280
  H      -67.554      81.288    -894.420
  H      -69.616      82.951    -897.690
  H      -71.699      82.690    -896.390
  H      -72.055      80.726    -893.520
  H      -70.994      83.120    -892.410
  H      -72.259      84.481    -893.950
  H      -74.623      82.613    -893.380
  H      -75.398      83.242    -895.600
  H      -75.153      84.734    -894.630
  P      -72.647      85.834    -891.510
  C      -73.300      84.762    -889.250
  O      -72.220      85.270    -890.080
  O      -73.268      87.186    -891.520
  O      -71.245      85.856    -892.330
  H      -71.118      86.745    -892.730
  H      -72.901      84.412    -888.321
  H      -73.789      83.955    -889.755
  H      -74.005      85.545    -889.063

 6  7  8  9  10  11  12  13  14  15  16  26  31  32  33  34  35 0
 6-311+G(2d,p)
 ****
 36  37 0
 6-311+G(2d,p)
 ****
 1  2  3  4  5  17  18  19  20  21  22  23  24  25 0
 3-21G
 ****
 27  28  29  30  38  39  40  41  42  43  44  45 0
 3-21G
 ****


