%nproc=1
%NoSave
%Mem=1900MB
#P OB98/GEN NMR

erre ene a

0 1
  C     -114.593     153.606      81.914
  O     -113.995     154.746      82.501
  H     -114.304     152.719      82.487
  H     -114.250     153.485      80.883
  H     -115.685     153.697      81.936
  P     -114.251     156.155      81.772
  C     -116.267     156.823      83.271
  O     -115.808     156.498      81.964
  C     -117.082     158.114      83.220
  O     -118.174     157.969      82.278
  C     -117.735     158.488      84.545
  O     -116.818     159.082      85.444
  C     -118.810     159.456      84.070
  O     -118.288     160.783      83.901
  C     -119.234     158.845      82.714
  N     -120.515     158.159      82.796
  C     -121.647     158.972      82.711
  O     -121.589     160.193      82.576
  N     -122.853     158.327      82.824
  C     -123.033     156.996      83.045
  O     -124.142     156.497      83.213
  C     -121.802     156.184      83.111
  C     -120.617     156.794      82.995
  O     -114.130     155.786      80.220
  O     -113.313     157.247      82.166
  H     -113.267     156.073      79.874
  H     -118.044     161.094      84.794
  H     -123.678     158.900      82.777
  H     -121.912     155.116      83.286
  H     -119.701     156.219      83.063
  H     -119.318     159.638      81.953
  H     -119.631     159.526      84.787
  H     -118.222     157.608      84.990
  H     -116.427     158.926      82.869
  H     -115.409     156.968      83.937
  H     -116.871     155.989      83.655
  P     -117.166     159.055      87.015
  C     -115.904     156.759      87.280
  O     -117.084     157.518      87.472
  O     -118.730     159.374      86.993
  O     -116.339     159.991      87.830
  H     -119.190     158.982      86.227
  H     -116.054     155.766      87.650
  H     -115.095     157.218      87.809
  H     -115.671     156.719      86.236

 6  7  8  9  10  11  12  13  14  15  16  27  31  32  33  34  35 0
 6-311+G(2d,p)
 ****
 36  37 0
 6-311+G(2d,p)
 ****
 1  2  3  4  5  17  18  19  20  21  22  23  24  25 0
 3-21G
 ****
 26  28  29  30  38  39  40  41  42  43  44  45 0
 3-21G
 ****


