%nproc=1
%NoSave
%Mem=1900MB
#P OB98/GEN NMR

erre ene a

0 1
  C       66.615    -259.479     224.583
  O       67.329    -259.290     225.817
  P       68.414    -260.393     226.270
  C       70.009    -258.769     227.551
  O       69.173    -259.914     227.610
  C       70.296    -258.212     228.962
  O       69.126    -257.509     229.464
  C       70.649    -259.284     230.008
  O       71.571    -258.690     230.929
  C       69.316    -259.539     230.691
  O       69.441    -260.148     231.968
  C       68.756    -258.107     230.720
  N       67.308    -258.030     230.940
  C       66.854    -257.946     232.256
  O       67.576    -257.983     233.252
  N       65.491    -257.830     232.407
  C       64.566    -257.846     231.395
  O       63.360    -257.775     231.603
  C       65.099    -257.972     230.035
  C       66.428    -258.055     229.873
  O       69.552    -260.216     225.155
  O       67.925    -261.802     226.297
  H       68.536    -260.243     232.326
  H       69.829    -261.096     224.830
  H       65.140    -257.753     233.350
  H       64.400    -257.983     229.213
  H       66.847    -258.138     228.878
  H       69.264    -257.533     231.503
  H       68.707    -260.201     230.070
  H       71.084    -260.185     229.565
  H       71.100    -257.473     228.877
  H       69.529    -257.995     226.951
  H       70.955    -259.043     227.064
  P       73.139    -259.019     230.773
  C       74.022    -256.842     231.938
  O       73.904    -258.250     231.955
  O       73.492    -258.136     229.478
  O       73.453    -260.470     230.606
  H       73.110    -257.238     229.520
  H       73.096    -256.363     231.600
  H       74.837    -256.552     231.274
  H       74.252    -256.499     232.952
  H       65.939    -258.663     224.433
  H       66.064    -260.395     224.627
  H       67.311    -259.520     223.771

 3  4  5  6  7  8  9  10  11  12  13  23  28  29  30  31  32 0
 6-311+G(2d,p)
 ****
 33  34 0
 6-311+G(2d,p)
 ****
 1  2  14  15  16  17  18  19  20  21  22  24  25  26 0
 3-21G
 ****
 27  35  36  37  38  39  40  41  42  43  44  45 0
 3-21G
 ****


