%nproc=1
%NoSave
%Mem=1900MB
#P OB98/GEN NMR

erre ene a

0 1
  C      -49.264    -897.280    -221.088
  O      -50.423    -898.030    -221.473
  P      -51.844    -897.280    -221.482
  C      -51.775    -896.390    -223.930
  O      -51.764    -896.070    -222.538
  C      -52.506    -895.290    -224.724
  O      -51.931    -893.990    -224.485
  C      -52.484    -895.520    -226.228
  O      -53.496    -896.430    -226.648
  C      -52.814    -894.120    -226.725
  O      -54.232    -893.880    -226.639
  C      -52.067    -893.230    -225.726
  N      -48.767    -889.390    -225.972
  C      -50.028    -889.450    -225.405
  N      -50.468    -888.320    -224.808
  N      -50.791    -890.520    -225.418
  C      -50.213    -891.570    -226.035
  C      -48.953    -891.640    -226.630
  C      -48.136    -890.460    -226.619
  O      -47.026    -890.340    -227.113
  N      -48.733    -892.880    -227.154
  C      -49.819    -893.570    -226.851
  N      -50.739    -892.820    -226.190
  O      -51.850    -896.510    -220.070
  O      -53.020    -898.180    -221.612
  H      -54.674    -894.670    -227.004
  H      -52.759    -896.390    -219.766
  H      -48.224    -888.540    -225.932
  H      -49.971    -894.630    -227.107
  H      -52.615    -892.300    -225.482
  H      -52.530    -893.970    -227.778
  H      -49.927    -887.480    -224.708
  H      -51.490    -895.810    -226.573
  H      -51.379    -888.340    -224.357
  H      -53.554    -895.270    -224.376
  H      -52.259    -897.350    -224.093
  H      -50.737    -896.500    -224.278
  P      -53.050    -897.720    -227.473
  C      -52.903    -899.280    -225.404
  O      -52.217    -898.640    -226.466
  O      -51.938    -897.130    -228.479
  O      -54.139    -898.400    -228.218
  H      -51.929    -897.640    -229.308
  H      -52.213    -900.000    -224.915
  H      -53.761    -899.850    -225.787
  H      -53.233    -898.550    -224.669
  H      -48.401    -897.911    -221.131
  H      -49.390    -896.916    -220.090
  H      -49.136    -896.454    -221.756

 3  4  5  6  7  8  9  10  11  12  23  26  30  31 0
 6-311+G(2d,p)
 ****
 33  35  36  37  38 0
 6-311+G(2d,p)
 ****
 1  2  13  14  15  16  17  18  19  20  21  22  24  25 0
 3-21G
 ****
 27  28  29  32  34  39  40  41  42  43  44  45  46  47  48  49 0
 3-21G
 ****


