%nproc=1
%NoSave
%Mem=1900MB
#P OB98/GEN NMR

erre ene a

0 1
  C     -182.789    -828.185    -331.387
  O     -184.030    -828.848    -331.573
  H     -182.761    -827.311    -332.036
  H     -181.966    -828.855    -331.665
  H     -182.683    -827.872    -330.347
  P     -184.256    -830.192    -330.732
  C     -186.781    -829.908    -331.266
  O     -185.666    -830.791    -331.219
  C     -187.901    -830.524    -332.106
  O     -188.240    -831.843    -331.610
  C     -189.185    -829.717    -332.126
  O     -189.129    -828.658    -333.069
  C     -190.215    -830.781    -332.497
  O     -190.215    -831.026    -333.913
  C     -189.684    -832.003    -331.733
  N     -193.980    -832.936    -329.237
  C     -193.730    -832.882    -330.583
  N     -194.793    -833.044    -331.399
  N     -192.548    -832.663    -331.107
  C     -191.579    -832.479    -330.164
  C     -191.699    -832.525    -328.806
  C     -193.014    -832.787    -328.245
  O     -193.287    -832.908    -327.051
  N     -190.491    -832.311    -328.181
  C     -189.662    -832.098    -329.190
  N     -190.279    -832.180    -330.415
  O     -184.577    -829.654    -329.258
  O     -183.110    -831.152    -330.727
  H     -190.358    -830.180    -334.386
  H     -184.265    -830.312    -328.603
  H     -194.906    -833.111    -328.895
  H     -188.596    -831.893    -329.072
  H     -189.861    -832.941    -332.270
  H     -191.219    -830.478    -332.217
  H     -195.742    -832.872    -331.083
  H     -189.421    -829.313    -331.115
  H     -194.619    -832.982    -332.398
  H     -187.512    -830.652    -333.129
  H     -186.470    -828.954    -331.721
  H     -187.124    -829.723    -330.251
  P     -189.665    -827.219    -332.629
  C     -188.737    -826.450    -334.936
  O     -189.784    -826.340    -333.979
  O     -188.421    -826.570    -331.873
  O     -190.901    -827.241    -331.783
  H     -188.705    -825.803    -331.334
  H     -188.949    -825.816    -335.771
  H     -188.662    -827.464    -335.268
  H     -187.812    -826.152    -334.488

 6  7  8  9  10  11  12  13  14  15  26  29  33  34 0
 6-311+G(2d,p)
 ****
 36  38  39  40  41 0
 6-311+G(2d,p)
 ****
 1  2  3  4  5  16  17  18  19  20  21  22  23  24  25 0
 3-21G
 ****
 27  28  30  31  32  35  37  42  43  44  45  46  47 0
 3-21G
 ****
 48  49 0
 3-21G
 ****


