%nproc=1
%NoSave
%Mem=1900MB
#P OB98/GEN NMR

erre ene a

0 1
  C      115.385     -29.769     -97.435
  O      116.123     -30.936     -97.738
  H      114.345     -29.905     -97.737
  H      115.418     -29.603     -96.355
  H      115.811     -28.898     -97.939
  P      116.463     -31.208     -99.282
  C      116.172     -33.763     -98.927
  O      117.022     -32.713     -99.363
  C      116.981     -34.847     -98.218
  O      117.478     -34.306     -96.961
  C      116.186     -36.122     -97.899
  O      117.040     -37.252     -98.104
  C      115.894     -35.987     -96.416
  O      115.687     -37.242     -95.779
  C      117.139     -35.251     -95.932
  N      116.445     -36.051     -90.960
  C      116.943     -36.835     -91.938
  N      117.145     -36.523     -93.234
  C      116.838     -35.235     -93.466
  C      116.327     -34.313     -92.570
  C      116.112     -34.773     -91.260
  N      115.541     -34.004     -90.272
  N      116.088     -33.109     -93.203
  C      116.423     -33.311     -94.462
  N      116.881     -34.581     -94.669
  O      117.770     -30.309     -99.509
  O      115.379     -30.872    -100.249
  H      115.687     -37.110     -94.811
  H      117.506     -29.406     -99.761
  H      117.204     -37.849     -91.646
  H      116.328     -32.589     -95.260
  H      117.994     -35.921     -95.781
  H      114.994     -35.376     -96.274
  H      115.274     -36.236     -98.496
  H      117.858     -35.083     -98.833
  H      115.674     -34.203     -99.797
  H      115.326     -34.451     -89.395
  H      115.187     -33.089     -90.509
  H      115.410     -33.355     -98.255
  P      116.395     -38.550     -98.788
  C      117.830     -40.485     -97.799
  O      117.532     -39.669     -98.927
  O      116.149     -38.084    -100.299
  O      115.130     -39.010     -98.141
  H      115.358     -38.520    -100.662
  H      118.606     -41.177     -98.054
  H      116.953     -41.024     -97.507
  H      118.155     -39.867     -96.988

 6  7  8  9  10  11  12  13  14  15  25  28  32  33  34  35 0
 6-311+G(2d,p)
 ****
 36  39  40 0
 6-311+G(2d,p)
 ****
 1  2  3  4  5  16  17  18  19  20  21  22  23  24 0
 3-21G
 ****
 26  27  29  30  31  37  38  41  42  43  44  45  46  47 0
 3-21G
 ****
 48 0
 3-21G
 ****


