%nproc=1
%NoSave
%Mem=1900MB
#P OB98/GEN NMR

erre ene a

0 1
  C      160.795     214.133     368.279
  O      160.742     213.142     369.301
  P      160.562     211.613     368.832
  C      157.964     211.684     369.042
  O      159.097     211.496     368.198
  C      156.676     211.612     368.224
  O      156.683     212.627     367.198
  C      156.466     210.294     367.487
  O      156.048     209.271     368.375
  C      155.426     210.709     366.460
  O      154.122     210.766     367.068
  C      155.896     212.126     366.081
  N      155.828     212.825     361.007
  C      154.833     212.829     361.931
  N      154.928     212.613     363.257
  C      156.207     212.384     363.613
  C      157.315     212.327     362.779
  C      157.090     212.567     361.415
  N      158.100     212.564     360.474
  N      158.457     212.043     363.504
  C      158.045     211.935     364.755
  N      156.702     212.144     364.872
  O      160.430     210.826     370.220
  O      161.674     211.083     367.986
  H      154.216     211.259     367.913
  H      160.835     209.941     370.158
  H      153.840     213.030     361.554
  H      158.687     211.722     365.593
  H      155.057     212.819     365.933
  H      155.359     210.018     365.606
  H      157.390     209.985     366.981
  H      155.829     211.809     368.897
  H      158.026     212.667     369.519
  H      157.832     212.593     359.502
  H      159.012     212.219     360.758
  H      157.974     210.920     369.824
  P      156.227     207.752     367.887
  C      153.817     207.611     366.995
  O      155.190     207.626     366.649
  O      155.472     206.946     369.052
  O      157.629     207.341     367.602
  H      154.603     207.322     369.253
  H      153.233     207.571     366.075
  H      153.547     208.517     367.543
  H      153.585     206.729     367.597
  H      160.916     215.098     368.724
  H      159.886     214.112     367.714
  H      161.623     213.933     367.631

 3  4  5  6  7  8  9  10  11  12  22  25  29  30  31  32 0
 6-311+G(2d,p)
 ****
 33  36  37 0
 6-311+G(2d,p)
 ****
 1  2  13  14  15  16  17  18  19  20  21  23  24  26 0
 3-21G
 ****
 27  28  34  35  38  39  40  41  42  43  44  45  46  47  48 0
 3-21G
 ****


