%nproc=1
%NoSave
%Mem=1900MB
#P OB98/GEN NMR

erre ene a

0 1
  C      258.832      92.987     222.328
  O      258.295      92.135     221.336
  H      259.718      93.482     221.922
  H      259.130      92.408     223.209
  H      258.105      93.752     222.612
  P      257.005      91.256     221.700
  C      258.546      89.586     222.932
  O      257.393      90.418     223.012
  C      258.333      88.307     223.735
  O      259.460      87.421     223.580
  C      258.167      88.529     225.239
  O      256.838      88.917     225.544
  C      258.507      87.144     225.764
  O      257.387      86.260     225.557
  C      259.675      86.735     224.847
  N      262.887      86.497     228.768
  C      261.559      86.127     228.687
  N      260.995      85.654     229.822
  N      260.841      86.222     227.601
  C      261.513      86.776     226.561
  C      262.823      87.198     226.526
  C      263.624      87.023     227.719
  O      264.814      87.315     227.824
  N      263.124      87.794     225.326
  C      262.016      87.685     224.622
  N      261.002      87.081     225.331
  O      256.442      90.420     220.591
  O      255.945      92.320     222.248
  H      257.641      85.387     225.909
  H      255.368      92.646     221.531
  H      263.387      86.406     229.636
  H      261.890      88.016     223.599
  H      259.679      85.662     224.642
  H      258.730      87.137     226.833
  H      261.452      85.696     230.725
  H      258.901      89.245     225.620
  H      260.006      85.434     229.798
  H      257.456      87.791     223.316
  H      259.392      90.156     223.334
  H      258.761      89.336     221.886
  P      256.523      90.116     226.567
  C      255.037      88.622     228.066
  O      256.214      89.406     227.970
  O      255.481      91.075     226.105
  O      257.951      90.781     226.841
  H      258.198      91.458     226.159
  H      254.961      88.213     229.052
  H      255.079      87.826     227.352
  H      254.183      89.235     227.867

 6  7  8  9  10  11  12  13  14  15  26  29  33  34 0
 6-311+G(2d,p)
 ****
 36  38  39  40  41 0
 6-311+G(2d,p)
 ****
 1  2  3  4  5  16  17  18  19  20  21  22  23  24  25 0
 3-21G
 ****
 27  28  30  31  32  35  37  42  43  44  45  46  47 0
 3-21G
 ****
 48  49 0
 3-21G
 ****


