%nproc=1
%NoSave
%Mem=1900MB
#P OB98/GEN NMR

erre ene a

0 1
  C      -41.098     457.132     609.752
  O      -41.874     455.933     609.605
  P      -43.433     455.878     609.961
  C      -45.456     454.310     609.566
  O      -44.039     454.476     609.459
  C      -45.992     453.318     608.533
  O      -45.848     453.840     607.190
  C      -45.282     451.958     608.530
  O      -45.759     451.152     609.597
  C      -45.633     451.447     607.132
  O      -46.951     450.880     607.121
  C      -45.587     452.741     606.302
  N      -42.788     451.360     602.237
  C      -44.046     451.016     602.642
  N      -44.719     451.423     603.731
  C      -43.967     452.288     604.451
  C      -42.689     452.744     604.170
  C      -42.083     452.229     603.009
  N      -40.811     452.573     602.608
  N      -42.250     453.616     605.153
  C      -43.263     453.713     605.993
  N      -44.326     452.931     605.611
  O      -44.219     457.070     609.499
  O      -43.493     455.753     611.557
  H      -47.142     450.587     606.208
  H      -44.325     456.143     611.896
  H      -44.566     450.324     601.982
  H      -43.266     454.325     606.885
  H      -46.384     452.749     605.550
  H      -44.936     450.670     606.786
  H      -44.200     452.109     608.603
  H      -47.065     453.184     608.717
  H      -45.928     455.298     609.408
  H      -40.436     452.141     601.779
  H      -40.256     453.184     603.195
  H      -45.694     453.968     610.579
  P      -44.961     451.131     610.994
  C      -44.991     449.675     613.108
  O      -45.677     450.036     611.921
  O      -44.742     452.459     611.632
  O      -43.563     450.423     610.621
  H      -42.871     450.765     611.219
  H      -44.188     448.959     612.862
  H      -45.690     449.196     613.798
  H      -44.552     450.555     613.592
  H      -40.087     456.941     609.458
  H      -41.119     457.447     610.774
  H      -41.510     457.901     609.133

 3  4  5  6  7  8  9  10  11  12  22  25  29  30  31  32 0
 6-311+G(2d,p)
 ****
 33  36  37 0
 6-311+G(2d,p)
 ****
 1  2  13  14  15  16  17  18  19  20  21  23  24  26 0
 3-21G
 ****
 27  28  34  35  38  39  40  41  42  43  44  45  46  47  48 0
 3-21G
 ****


