%nproc=1
%NoSave
%Mem=1900MB
#P OB98/GEN NMR

erre ene a

0 1
  C       -0.547      54.712    -283.496
  O       -0.973      53.973    -282.367
  H       -0.833      55.756    -283.361
  H       -1.023      54.333    -284.402
  H        0.542      54.657    -283.598
  P       -0.670      52.400    -282.331
  C       -1.391      50.389    -283.782
  O       -1.646      51.740    -283.422
  C       -2.100      50.053    -285.087
  O       -1.683      50.953    -286.134
  C       -1.827      48.638    -285.596
  O       -2.644      47.699    -284.916
  C       -2.186      48.796    -287.063
  O       -3.620      48.804    -287.212
  C       -1.614      50.194    -287.372
  N        1.420      50.232    -291.438
  C        0.041      50.170    -291.361
  N       -0.621      50.061    -292.532
  N       -0.627      50.193    -290.234
  C        0.170      50.233    -289.142
  C        1.550      50.277    -289.093
  C        2.271      50.312    -290.344
  O        3.494      50.381    -290.457
  N        2.003      50.243    -287.798
  C        0.906      50.215    -287.067
  N       -0.236      50.191    -287.835
  O       -0.738      51.742    -280.984
  O        0.778      52.268    -282.995
  H       -3.801      49.031    -288.145
  H        1.481      52.289    -282.320
  H        1.873      50.192    -292.334
  H        0.879      50.215    -285.984
  H       -2.206      50.728    -288.124
  H       -1.800      47.996    -287.692
  H       -0.160      49.757    -293.378
  H       -0.761      48.380    -285.525
  H       -1.630      49.966    -292.495
  H       -3.175      50.212    -284.935
  H       -1.759      49.756    -282.968
  H       -0.309      50.220    -283.894
  P       -2.235      46.145    -284.842
  C       -1.667      44.447    -286.705
  O       -2.416      45.598    -286.337
  O       -2.953      45.360    -283.802
  O       -0.650      46.154    -284.662
  H       -0.355      46.198    -283.718
  H       -1.881      44.192    -287.722
  H       -1.934      43.629    -286.068
  H       -0.622      44.653    -286.602

 6  7  8  9  10  11  12  13  14  15  26  29  33  34 0
 6-311+G(2d,p)
 ****
 36  38  39  40  41 0
 6-311+G(2d,p)
 ****
 1  2  3  4  5  16  17  18  19  20  21  22  23  24  25 0
 3-21G
 ****
 27  28  30  31  32  35  37  42  43  44  45  46  47 0
 3-21G
 ****
 48  49 0
 3-21G
 ****


