%nproc=1
%NoSave
%Mem=1900MB
#P OB98/GEN NMR

erre ene a

0 1
  C      474.109    -200.802     698.047
  O      474.127    -202.234     698.027
  P      472.722    -202.989     698.215
  C      472.705    -204.949     696.478
  O      472.367    -203.602     696.777
  C      473.974    -204.996     695.628
  O      475.119    -204.546     696.395
  C      474.341    -206.386     695.135
  O      473.493    -206.800     694.074
  C      475.800    -206.179     694.745
  O      475.888    -205.561     693.451
  C      476.282    -205.198     695.831
  N      477.087    -205.839     696.866
  C      478.301    -206.374     696.443
  O      478.680    -206.345     695.273
  N      479.057    -206.969     697.417
  C      478.715    -207.102     698.729
  O      479.443    -207.639     699.557
  C      477.401    -206.561     699.103
  C      476.656    -205.962     698.174
  O      471.723    -201.752     698.377
  O      472.725    -203.954     699.354
  H      471.979    -200.986     697.833
  H      475.430    -206.161     692.828
  H      479.946    -207.354     697.135
  H      477.086    -206.674     700.134
  H      475.682    -205.558     698.428
  H      476.887    -204.402     695.381
  H      476.357    -207.119     694.697
  H      474.275    -207.106     695.961
  H      473.839    -204.314     694.779
  H      471.888    -205.425     695.927
  H      472.836    -205.497     697.415
  P      472.322    -207.840     694.442
  C      470.076    -206.691     693.761
  O      471.022    -206.961     694.767
  O      472.813    -208.360     695.876
  O      472.137    -208.917     693.424
  H      473.121    -207.644     696.454
  H      469.134    -206.402     694.233
  H      469.899    -207.563     693.128
  H      470.430    -205.858     693.141
  H      475.103    -200.431     697.912
  H      473.726    -200.463     698.987
  H      473.484    -200.442     697.257

 3  4  5  6  7  8  9  10  11  12  13  24  28  29  30  31  32 0
 6-311+G(2d,p)
 ****
 33  34 0
 6-311+G(2d,p)
 ****
 1  2  14  15  16  17  18  19  20  21  22  23  25  26  27 0
 3-21G
 ****
 35  36  37  38  39  40  41  42  43  44  45 0
 3-21G
 ****


