%nproc=1
%NoSave
%Mem=1900MB
#P OB98/GEN NMR

erre ene a

0 1
  C     -102.760    -144.561      40.525
  O     -102.145    -143.309      40.758
  H     -102.155    -145.341      41.001
  H     -102.802    -144.763      39.452
  H     -103.764    -144.587      40.953
  P     -102.896    -141.974      40.288
  C     -102.811    -140.935      42.649
  O     -102.445    -140.795      41.283
  C     -101.868    -140.125      43.548
  O     -100.519    -140.635      43.383
  C     -101.847    -138.623      43.230
  O     -101.721    -137.889      44.446
  C     -100.588    -138.461      42.395
  O     -100.052    -137.141      42.478
  C      -99.673    -139.532      42.994
  N      -95.107    -138.509      41.084
  C      -95.797    -137.900      42.113
  N      -95.195    -136.853      42.716
  N      -96.981    -138.283      42.518
  C      -97.454    -139.362      41.842
  C      -96.870    -140.050      40.809
  C      -95.568    -139.603      40.355
  O      -94.914    -140.089      39.435
  N      -97.674    -141.077      40.368
  C      -98.747    -141.004      41.137
  N      -98.667    -139.971      42.041
  O     -104.378    -142.112      40.117
  O     -102.181    -141.580      38.914
  H     -100.124    -136.864      43.418
  H     -102.752    -141.788      38.151
  H      -94.202    -138.166      40.805
  H      -99.601    -141.665      41.081
  H      -99.137    -139.176      43.883
  H     -100.810    -138.679      41.343
  H      -94.274    -136.519      42.471
  H     -102.740    -138.303      42.696
  H      -95.667    -136.405      43.494
  H     -102.149    -140.298      44.595
  H     -102.753    -141.995      42.915
  H     -103.846    -140.591      42.785
  P     -102.721    -136.662      44.722
  C     -103.215    -137.187      47.191
  O     -102.637    -136.266      46.278
  O     -104.106    -136.834      44.192
  O     -101.980    -135.429      44.005
  H     -102.656    -134.831      43.637
  H     -103.100    -136.820      48.189
  H     -102.725    -138.134      47.100
  H     -104.256    -137.301      46.971

 6  7  8  9  10  11  12  13  14  15  26  29  33  34 0
 6-311+G(2d,p)
 ****
 36  38  39  40  41 0
 6-311+G(2d,p)
 ****
 1  2  3  4  5  16  17  18  19  20  21  22  23  24  25 0
 3-21G
 ****
 27  28  30  31  32  35  37  42  43  44  45  46  47 0
 3-21G
 ****
 48  49 0
 3-21G
 ****


