%nproc=1
%NoSave
%Mem=1900MB
#P OB98/GEN NMR

erre ene a

0 1
  C      522.758    -289.706      84.170
  O      524.132    -289.672      83.845
  H      522.179    -289.780      83.247
  H      522.469    -288.790      84.690
  H      522.525    -290.575      84.797
  P      525.211    -289.752      85.025
  C      526.861    -290.996      83.473
  O      526.650    -289.883      84.332
  C      528.328    -291.069      83.037
  O      528.577    -290.026      82.049
  C      529.343    -290.862      84.191
  O      530.512    -291.615      83.854
  C      529.594    -289.370      84.078
  O      530.690    -288.946      84.842
  C      529.691    -289.240      82.546
  N      529.640    -287.877      82.028
  C      530.741    -287.064      82.244
  O      531.764    -287.412      82.838
  N      530.649    -285.789      81.750
  C      529.593    -285.273      81.062
  O      529.578    -284.129      80.611
  C      528.445    -286.183      80.870
  C      528.523    -287.423      81.348
  O      524.930    -290.757      86.095
  O      525.232    -288.260      85.613
  H      524.717    -288.225      86.437
  H      530.874    -288.001      84.643
  H      531.445    -285.186      81.894
  H      527.590    -285.804      80.334
  H      527.705    -288.121      81.216
  H      530.604    -289.727      82.192
  H      528.724    -288.817      84.461
  H      528.957    -291.188      85.156
  H      528.499    -292.033      82.534
  H      526.223    -290.868      82.588
  H      526.576    -291.913      83.989
  P      530.833    -293.066      84.452
  C      532.463    -293.809      82.584
  O      532.299    -293.501      83.967
  O      529.776    -294.090      84.167
  O      531.005    -292.842      86.035
  H      530.789    -293.672      86.506
  H      533.481    -294.082      82.398
  H      532.210    -292.952      81.995
  H      531.822    -294.624      82.322

 6  7  8  9  10  11  12  13  14  15  16  27  31  32  33  34  35 0
 6-311+G(2d,p)
 ****
 36  37 0
 6-311+G(2d,p)
 ****
 1  2  3  4  5  17  18  19  20  21  22  23  24  25 0
 3-21G
 ****
 26  28  29  30  38  39  40  41  42  43  44  45 0
 3-21G
 ****


