%nproc=1
%NoSave
%Mem=1900MB
#P OB98/GEN NMR

erre ene a

0 1
  C       68.784       8.270      80.622
  O       69.354       7.469      79.605
  H       69.591       8.744      81.186
  H       68.191       7.657      81.305
  H       68.158       9.053      80.184
  P       68.376       6.629      78.656
  C       69.173       4.477      79.842
  O       68.059       5.264      79.438
  C       68.708       3.097      80.299
  O       67.703       3.219      81.323
  C       68.092       2.243      79.191
  O       69.103       1.622      78.418
  C       67.296       1.248      80.018
  O       68.186       0.261      80.576
  C       66.739       2.145      81.140
  N       62.033       2.848      82.905
  C       63.062       2.079      83.411
  N       62.789       1.373      84.529
  N       64.247       1.998      82.864
  C       64.354       2.701      81.713
  C       63.402       3.485      81.102
  C       62.115       3.618      81.754
  O       61.184       4.310      81.351
  N       63.844       3.968      79.897
  C       65.082       3.519      79.805
  N       65.438       2.736      80.879
  O       68.841       6.426      77.246
  O       66.986       7.419      78.723
  H       68.655      -0.156      79.831
  H       66.920       8.075      78.006
  H       61.138       2.865      83.365
  H       65.763       3.733      78.990
  H       66.658       1.609      82.093
  H       66.547       0.713      79.433
  H       61.859       1.277      84.909
  H       67.400       2.826      78.574
  H       63.514       0.759      84.881
  H       69.568       2.587      80.753
  H       69.668       5.004      80.663
  H       69.884       4.369      79.017
  P       68.870       1.252      76.871
  C       67.628      -0.876      77.659
  O       67.588       0.289      76.854
  O       70.066       0.707      76.171
  O       68.287       2.592      76.228
  H       68.995       3.225      75.947
  H       66.712      -1.418      77.548
  H       67.756      -0.597      78.684
  H       68.447      -1.493      77.353

 6  7  8  9  10  11  12  13  14  15  26  29  33  34 0
 6-311+G(2d,p)
 ****
 36  38  39  40  41 0
 6-311+G(2d,p)
 ****
 1  2  3  4  5  16  17  18  19  20  21  22  23  24  25 0
 3-21G
 ****
 27  28  30  31  32  35  37  42  43  44  45  46  47 0
 3-21G
 ****
 48  49 0
 3-21G
 ****


