%nproc=1
%NoSave
%Mem=1900MB
#P OB98/GEN NMR

erre ene a

0 1
  C      -31.090    -159.284     -47.470
  O      -30.204    -159.738     -48.496
  P      -30.155    -161.325     -48.735
  C      -29.981    -161.139     -51.314
  O      -29.374    -161.592     -50.113
  C      -29.816    -159.624     -51.488
  O      -28.420    -159.231     -51.333
  C      -30.276    -159.106     -52.856
  O      -30.826    -157.799     -52.644
  C      -28.973    -158.976     -53.622
  O      -29.110    -158.119     -54.751
  C      -28.064    -158.462     -52.505
  N      -23.988    -156.024     -54.216
  C      -25.304    -155.612     -54.142
  N      -25.565    -154.347     -54.534
  N      -26.278    -156.374     -53.717
  C      -25.863    -157.603     -53.320
  C      -24.588    -158.121     -53.331
  C      -23.524    -157.277     -53.833
  O      -22.343    -157.591     -53.916
  N      -24.560    -159.397     -52.818
  C      -25.831    -159.663     -52.567
  N      -26.651    -158.592     -52.800
  O      -31.676    -161.688     -49.077
  O      -29.650    -162.094     -47.557
  H      -28.402    -158.356     -55.389
  H      -32.116    -162.064     -48.292
  H      -23.279    -155.401     -54.567
  H      -26.206    -160.601     -52.192
  H      -28.236    -157.400     -52.286
  H      -28.640    -159.959     -53.974
  H      -24.855    -153.693     -54.825
  H      -31.004    -159.747     -53.361
  H      -26.516    -154.007     -54.451
  H      -30.385    -159.125     -50.694
  H      -31.048    -161.381     -51.307
  H      -29.552    -161.683     -52.160
  P      -32.393    -157.595     -52.901
  C      -33.251    -156.297     -50.834
  O      -32.825    -156.234     -52.180
  O      -33.061    -158.732     -51.987
  O      -32.815    -157.743     -54.328
  H      -33.825    -159.116     -52.452
  H      -33.060    -155.334     -50.359
  H      -32.725    -157.077     -50.276
  H      -34.327    -156.499     -50.804
  H      -31.039    -158.217     -47.401
  H      -30.803    -159.716     -46.534
  H      -32.091    -159.579     -47.707

 3  4  5  6  7  8  9  10  11  12  23  26  30  31 0
 6-311+G(2d,p)
 ****
 33  35  36  37  38 0
 6-311+G(2d,p)
 ****
 1  2  13  14  15  16  17  18  19  20  21  22  24  25 0
 3-21G
 ****
 27  28  29  32  34  39  40  41  42  43  44  45  46  47  48  49 0
 3-21G
 ****


