%nproc=1
%NoSave
%Mem=1900MB
#P OB98/GEN NMR

erre ene a

0 1
  C     -554.499    -283.441     271.616
  O     -554.742    -283.162     270.251
  P     -554.056    -284.045     269.101
  C     -551.604    -284.800     268.520
  O     -552.472    -284.000     269.299
  C     -550.234    -284.107     268.432
  O     -549.655    -283.996     269.745
  C     -549.272    -284.892     267.551
  O     -549.285    -284.400     266.220
  C     -547.937    -284.693     268.250
  O     -547.370    -283.413     267.884
  C     -548.371    -284.681     269.741
  N     -548.552    -285.987     270.421
  C     -547.604    -286.415     271.343
  O     -546.622    -285.750     271.673
  N     -547.817    -287.663     271.880
  C     -548.898    -288.464     271.607
  O     -548.957    -289.669     271.906
  C     -549.976    -287.847     270.839
  C     -549.747    -286.668     270.267
  O     -554.293    -283.174     267.775
  O     -554.587    -285.436     268.957
  H     -547.191    -283.447     266.931
  H     -555.062    -283.508     267.281
  H     -547.070    -288.040     272.453
  H     -550.901    -288.413     270.725
  H     -550.531    -286.206     269.669
  H     -547.670    -284.095     270.350
  H     -547.223    -285.445     267.950
  H     -549.528    -285.958     267.571
  H     -550.381    -283.094     268.026
  H     -552.027    -284.952     267.521
  H     -551.499    -285.794     268.981
  P     -548.826    -285.345     265.013
  C     -547.179    -287.305     264.875
  O     -547.526    -286.122     265.555
  O     -548.668    -284.673     263.679
  O     -549.967    -286.477     264.974
  H     -550.635    -286.261     264.281
  H     -546.194    -287.636     265.221
  H     -547.146    -287.136     263.796
  H     -547.918    -288.087     265.109
  H     -555.042    -282.748     272.224
  H     -553.452    -283.349     271.818
  H     -554.819    -284.437     271.839

 3  4  5  6  7  8  9  10  11  12  13  23  28  29  30  31  32 0
 6-311+G(2d,p)
 ****
 33  34 0
 6-311+G(2d,p)
 ****
 1  2  14  15  16  17  18  19  20  21  22  24  25  26  27 0
 3-21G
 ****
 35  36  37  38  39  40  41  42  43  44  45 0
 3-21G
 ****


