%nproc=1
%NoSave
%Mem=1900MB
#P OB98/GEN NMR

erre ene a

0 1
  C      107.513     608.783     208.702
  O      108.397     608.182     207.779
  H      106.489     608.624     208.367
  H      107.704     609.860     208.740
  H      107.634     608.347     209.700
  P      109.910     607.943     208.256
  C      110.889     609.016     206.104
  O      110.806     609.061     207.521
  C      112.074     609.861     205.615
  O      111.681     611.263     205.631
  C      113.341     609.715     206.473
  O      114.490     609.778     205.616
  C      113.319     610.986     207.317
  O      114.612     611.342     207.793
  C      112.725     611.978     206.320
  N      114.088     616.532     207.928
  C      114.746     615.634     207.115
  N      115.990     615.975     206.702
  N      114.226     614.497     206.730
  C      112.971     614.292     207.192
  C      112.215     615.095     208.009
  C      112.806     616.346     208.440
  O      112.275     617.171     209.184
  N      111.011     614.506     208.302
  C      111.055     613.340     207.686
  N      112.225     613.164     206.995
  O      110.305     606.589     207.502
  O      110.110     607.841     209.734
  H      114.510     612.076     208.434
  H      110.160     605.828     208.094
  H      114.535     617.393     208.208
  H      110.282     612.579     207.724
  H      113.456     612.317     205.576
  H      112.656     610.845     208.184
  H      116.442     616.846     206.930
  H      113.376     608.807     207.077
  H      116.459     615.344     206.074
  H      112.280     609.595     204.568
  H      109.963     609.414     205.669
  H      111.005     607.979     205.780
  P      114.905     608.446     204.827
  C      116.872     607.479     206.237
  O      115.498     607.394     205.878
  O      116.199     608.905     203.997
  O      113.838     607.920     203.923
  H      116.220     608.443     203.138
  H      117.104     606.709     206.943
  H      117.068     608.436     206.675
  H      117.477     607.356     205.363

 6  7  8  9  10  11  12  13  14  15  26  29  33  34 0
 6-311+G(2d,p)
 ****
 36  38  39  40  41 0
 6-311+G(2d,p)
 ****
 1  2  3  4  5  16  17  18  19  20  21  22  23  24  25 0
 3-21G
 ****
 27  28  30  31  32  35  37  42  43  44  45  46  47 0
 3-21G
 ****
 48  49 0
 3-21G
 ****


