%nproc=1
%NoSave
%Mem=1900MB
#P OB98/GEN NMR

erre ene a

0 1
  C      258.459      52.028     -25.231
  O      259.150      53.030     -25.951
  H      259.041      51.104     -25.270
  H      257.485      51.851     -25.693
  H      258.329      52.319     -24.184
  P      258.648      54.543     -25.748
  C      256.691      55.953     -26.705
  O      257.234      54.657     -26.501
  C      255.292      55.853     -27.305
  O      254.343      55.432     -26.304
  C      254.756      57.162     -27.880
  O      255.230      57.385     -29.203
  C      253.262      56.883     -27.875
  O      252.924      56.021     -28.985
  C      253.085      56.124     -26.551
  N      249.478      58.790     -24.178
  C      249.430      58.104     -25.378
  N      248.253      58.139     -26.042
  N      250.439      57.444     -25.883
  C      251.559      57.516     -25.120
  C      251.733      58.170     -23.920
  C      250.602      58.880     -23.365
  O      250.591      59.495     -22.301
  N      253.008      58.018     -23.444
  C      253.612      57.295     -24.366
  N      252.776      56.965     -25.406
  O      259.648      55.372     -26.687
  O      258.683      55.042     -24.343
  H      251.954      56.037     -29.072
  H      260.323      55.801     -26.127
  H      248.676      59.289     -23.840
  H      254.646      56.974     -24.326
  H      252.299      55.365     -26.611
  H      252.663      57.790     -27.984
  H      247.443      58.647     -25.721
  H      254.976      58.014     -27.221
  H      248.195      57.639     -26.923
  H      255.314      55.073     -28.080
  H      257.341      56.509     -27.389
  H      256.649      56.478     -25.744
  P      255.156      58.875     -29.793
  C      253.216      60.425     -30.549
  O      253.613      59.323     -29.744
  O      255.431      58.646     -31.354
  O      256.127      59.842     -29.207
  H      256.299      59.024     -31.599
  H      252.170      60.606     -30.415
  H      253.410      60.204     -31.578
  H      253.769      61.295     -30.261

 6  7  8  9  10  11  12  13  14  15  26  29  33  34 0
 6-311+G(2d,p)
 ****
 36  38  39  40  41 0
 6-311+G(2d,p)
 ****
 1  2  3  4  5  16  17  18  19  20  21  22  23  24  25 0
 3-21G
 ****
 27  28  30  31  32  35  37  42  43  44  45  46  47 0
 3-21G
 ****
 48  49 0
 3-21G
 ****


