%nproc=1
%NoSave
%Mem=1900MB
#P OB98/GEN NMR

erre ene a

0 1
  C     -131.917     148.145      93.201
  O     -130.612     148.113      92.663
  H     -131.882     148.654      94.169
  H     -132.289     147.130      93.355
  H     -132.595     148.694      92.543
  P     -130.400     147.538      91.182
  C     -129.135     145.563      92.250
  O     -129.127     146.565      91.239
  C     -128.042     144.535      91.969
  O     -128.287     143.875      90.708
  C     -126.644     145.133      91.860
  O     -126.134     145.458      93.137
  C     -125.918     144.008      91.138
  O     -125.561     142.955      92.048
  C     -127.003     143.523      90.147
  N     -126.840     144.086      88.806
  C     -125.807     143.556      88.039
  O     -125.055     142.669      88.441
  N     -125.635     144.117      86.802
  C     -126.320     145.190      86.310
  O     -125.989     145.797      85.297
  C     -127.447     145.658      87.131
  C     -127.642     145.104      88.329
  O     -130.369     148.555      90.090
  O     -131.621     146.517      90.997
  H     -132.318     146.943      90.463
  H     -124.831     143.302      92.598
  H     -124.857     143.773      86.256
  H     -128.056     146.466      86.746
  H     -128.448     145.454      88.966
  H     -126.982     142.429      90.061
  H     -124.994     144.346      90.663
  H     -126.662     146.016      91.211
  H     -128.077     143.774      92.759
  H     -130.111     145.069      92.242
  H     -128.982     146.037      93.225
  P     -125.762     146.965      93.521
  C     -123.238     146.578      93.720
  O     -124.428     146.938      94.408
  O     -126.880     147.763      94.108
  O     -125.264     147.612      92.140
  H     -125.767     148.432      91.972
  H     -122.414     146.592      94.402
  H     -123.058     147.276      92.929
  H     -123.346     145.595      93.311

 6  7  8  9  10  11  12  13  14  15  16  27  31  32  33  34  35 0
 6-311+G(2d,p)
 ****
 36  37 0
 6-311+G(2d,p)
 ****
 1  2  3  4  5  17  18  19  20  21  22  23  24  25 0
 3-21G
 ****
 26  28  29  30  38  39  40  41  42  43  44  45 0
 3-21G
 ****


