%nproc=1
%NoSave
%Mem=1900MB
#P OB98/GEN NMR

erre ene a

0 1
  C      122.824      56.097    -123.662
  O      122.084      56.503    -122.531
  P      122.471      57.765    -121.634
  C      121.944      56.143    -119.669
  O      121.956      57.487    -120.133
  C      120.846      55.872    -118.629
  O      121.142      56.589    -117.414
  C      119.502      56.425    -119.134
  O      118.704      55.659    -120.017
  C      118.782      56.925    -117.881
  O      117.832      55.979    -117.387
  C      119.922      57.121    -116.878
  N      118.284      61.057    -114.130
  C      117.953      59.716    -114.016
  N      116.924      59.431    -113.194
  N      118.571      58.764    -114.668
  C      119.518      59.216    -115.522
  C      119.941      60.512    -115.710
  C      119.285      61.555    -114.950
  O      119.489      62.758    -115.086
  N      120.871      60.607    -116.713
  C      120.984      59.375    -117.160
  N      120.150      58.501    -116.500
  O      122.245      59.117    -122.233
  O      124.065      57.566    -121.483
  H      117.177      55.823    -118.083
  H      124.470      58.456    -121.458
  H      117.724      61.758    -113.655
  H      121.619      59.066    -117.981
  H      119.719      56.566    -115.955
  H      118.224      57.844    -118.097
  H      116.335      60.148    -112.791
  H      119.728      57.335    -119.706
  H      116.544      58.490    -113.218
  H      120.808      54.818    -118.359
  H      122.933      55.927    -119.246
  H      121.804      55.465    -120.521
  P      118.160      56.121    -121.448
  C      116.295      54.371    -121.577
  O      117.487      54.860    -122.167
  O      119.490      56.358    -122.314
  O      117.323      57.362    -121.435
  H      119.295      56.959    -123.060
  H      116.096      53.364    -121.943
  H      115.460      55.024    -121.860
  H      116.379      54.350    -120.481
  H      122.369      55.230    -124.094
  H      123.826      55.865    -123.368
  H      122.838      56.888    -124.382

 3  4  5  6  7  8  9  10  11  12  23  26  30  31 0
 6-311+G(2d,p)
 ****
 33  35  36  37  38 0
 6-311+G(2d,p)
 ****
 1  2  13  14  15  16  17  18  19  20  21  22  24  25 0
 3-21G
 ****
 27  28  29  32  34  39  40  41  42  43  44  45  46  47  48  49 0
 3-21G
 ****


