%nproc=1
%NoSave
%Mem=1900MB
#P OB98/GEN NMR

erre ene a

0 1
  C      205.883     141.416     253.361
  O      205.335     140.135     253.717
  P      206.229     138.824     253.935
  C      208.273     138.611     255.521
  O      206.882     138.905     255.406
  C      208.694     138.550     256.989
  O      208.334     139.781     257.670
  C      208.021     137.460     257.819
  O      208.522     136.169     257.518
  C      208.320     137.938     259.236
  O      209.623     137.511     259.671
  C      208.294     139.472     259.080
  N      207.146     140.089     259.722
  C      207.376     140.765     260.921
  O      208.500     140.753     261.435
  N      206.331     141.428     261.521
  C      205.141     141.329     261.018
  N      204.141     142.018     261.648
  C      204.822     140.512     259.833
  C      205.863     139.928     259.237
  O      207.226     138.577     252.850
  O      205.191     137.613     254.045
  H      205.619     136.781     253.772
  H      210.264     137.870     259.029
  H      203.806     140.427     259.472
  H      205.720     139.319     258.347
  H      209.211     139.910     259.497
  H      207.593     137.549     259.964
  H      206.936     137.490     257.644
  H      209.786     138.438     257.027
  H      204.396     142.580     262.452
  H      208.837     139.405     255.020
  H      203.183     142.030     261.326
  H      208.480     137.662     255.012
  P      207.578     135.202     256.650
  C      206.732     135.126     254.194
  O      207.618     135.718     255.133
  O      206.105     135.581     257.143
  O      207.852     133.744     256.832
  H      205.558     134.773     257.200
  H      206.530     135.857     253.407
  H      205.790     134.835     254.663
  H      207.210     134.252     253.748
  H      205.091     142.131     253.273
  H      206.398     141.337     252.426
  H      206.568     141.734     254.119

 3  4  5  6  7  8  9  10  11  12  13  24  27  28  29  30  32 0
 6-311+G(2d,p)
 ****
 34  35 0
 6-311+G(2d,p)
 ****
 1  2  14  15  16  17  18  19  20  21  22  23  25  26 0
 3-21G
 ****
 31  33  36  37  38  39  40  41  42  43  44  45  46 0
 3-21G
 ****


