%nproc=1
%NoSave
%Mem=1900MB
#P OB98/GEN NMR

erre ene a

0 1
  C      -64.824      20.233      41.852
  O      -64.500      19.725      43.130
  H      -64.459      21.260      41.778
  H      -65.907      20.234      41.705
  H      -64.343      19.631      41.077
  P      -65.040      18.258      43.486
  C      -62.936      17.180      44.564
  O      -64.219      17.758      44.768
  C      -62.101      17.333      45.832
  O      -61.536      18.664      45.889
  C      -62.895      17.176      47.121
  O      -63.145      15.819      47.449
  C      -61.966      17.850      48.115
  O      -60.955      16.949      48.591
  C      -61.350      18.988      47.281
  N      -61.928      20.284      47.626
  C      -61.071      21.176      48.266
  O      -59.899      20.914      48.532
  N      -61.620      22.375      48.628
  C      -62.923      22.740      48.463
  O      -63.364      23.811      48.862
  C      -63.786      21.752      47.797
  C      -63.259      20.584      47.418
  O      -64.468      17.360      42.292
  O      -66.523      18.147      43.609
  H      -65.191      17.122      41.683
  H      -61.431      16.164      48.926
  H      -61.015      23.036      49.090
  H      -64.828      22.008      47.652
  H      -63.877      19.835      46.935
  H      -60.267      19.043      47.448
  H      -62.515      18.205      48.983
  H      -63.829      17.747      47.063
  H      -61.276      16.610      45.796
  H      -62.428      17.691      43.741
  H      -63.059      16.125      44.300
  P      -64.299      15.510      48.521
  C      -64.242      13.028      47.652
  O      -64.268      13.925      48.750
  O      -65.602      15.769      47.632
  O      -64.194      16.346      49.751
  H      -65.432      15.614      46.686
  H      -64.224      12.021      48.014
  H      -63.368      13.211      47.063
  H      -65.115      13.175      47.051

 6  7  8  9  10  11  12  13  14  15  16  27  31  32  33  34  35 0
 6-311+G(2d,p)
 ****
 36  37 0
 6-311+G(2d,p)
 ****
 1  2  3  4  5  17  18  19  20  21  22  23  24  25 0
 3-21G
 ****
 26  28  29  30  38  39  40  41  42  43  44  45 0
 3-21G
 ****


