%nproc=1
%NoSave
%Mem=1900MB
#P OB98/GEN NMR

erre ene a

0 1
  C      284.808      61.544     477.976
  O      283.717      60.705     477.644
  H      284.667      61.916     478.993
  H      284.850      62.396     477.288
  H      285.743      60.979     477.930
  P      283.746      60.032     476.186
  C      283.898      61.007     473.789
  O      283.981      61.266     475.187
  C      284.480      62.173     472.993
  O      285.901      62.277     473.217
  C      284.308      62.046     471.482
  O      283.009      62.456     471.088
  C      285.373      63.023     470.994
  O      284.881      64.372     471.092
  C      286.515      62.804     472.007
  N      290.359      62.037     468.690
  C      289.397      62.983     468.741
  N      288.381      63.102     469.630
  C      288.416      62.107     470.530
  C      289.338      61.070     470.603
  C      290.356      61.061     469.629
  N      291.345      60.102     469.586
  N      289.058      60.233     471.663
  C      288.017      60.787     472.256
  N      287.569      61.898     471.586
  O      282.608      59.128     475.867
  O      285.190      59.332     476.205
  H      285.647      64.972     470.997
  H      285.841      59.896     476.658
  H      289.448      63.751     467.973
  H      287.559      60.430     473.170
  H      287.003      63.749     472.275
  H      285.643      62.854     469.949
  H      284.554      61.041     471.130
  H      284.024      63.100     473.365
  H      282.856      60.841     473.495
  H      291.926      60.070     468.760
  H      291.266      59.307     470.209
  H      284.462      60.092     473.591
  P      282.235      61.695     469.905
  C      282.553      62.207     467.402
  O      283.181      61.785     468.607
  O      280.828      62.135     469.680
  O      282.317      60.146     470.304
  H      281.483      59.691     470.074
  H      283.275      62.229     466.612
  H      282.143      63.186     467.537
  H      281.769      61.524     467.150

 6  7  8  9  10  11  12  13  14  15  25  28  32  33  34  35 0
 6-311+G(2d,p)
 ****
 36  39  40 0
 6-311+G(2d,p)
 ****
 1  2  3  4  5  16  17  18  19  20  21  22  23  24 0
 3-21G
 ****
 26  27  29  30  31  37  38  41  42  43  44  45  46  47 0
 3-21G
 ****
 48 0
 3-21G
 ****


