%nproc=1
%NoSave
%Mem=1900MB
#P OB98/GEN NMR

erre ene a

0 1
  C     -897.919     763.401     431.902
  O     -898.868     764.265     431.325
  P     -898.951     764.548     429.768
  C     -901.289     763.365     429.745
  O     -900.023     763.556     429.105
  C     -902.450     763.800     428.830
  O     -902.481     762.927     427.679
  C     -903.818     763.665     429.555
  O     -904.686     764.765     429.302
  C     -904.281     762.278     429.130
  O     -905.686     762.095     429.277
  C     -903.713     762.176     427.707
  N     -905.302     758.382     424.720
  C     -905.696     759.701     424.710
  N     -906.788     760.016     423.984
  N     -905.112     760.621     425.431
  C     -904.126     760.159     426.247
  C     -903.643     758.866     426.302
  C     -904.269     757.860     425.504
  O     -904.021     756.665     425.529
  N     -902.673     758.755     427.274
  C     -902.588     759.961     427.811
  N     -903.473     760.827     427.239
  O     -897.658     764.748     429.050
  O     -899.752     765.961     429.741
  H     -905.862     761.161     429.070
  H     -899.400     766.469     428.993
  H     -905.856     757.696     424.196
  H     -901.936     760.241     428.609
  H     -904.407     762.642     426.974
  H     -903.781     761.563     429.792
  H     -907.330     759.284     423.550
  H     -903.671     763.695     430.630
  H     -907.249     760.886     424.148
  H     -902.253     764.832     428.470
  H     -901.269     763.977     430.648
  H     -901.410     762.338     430.053
  P     -905.959     765.231     430.129
  C     -904.703     767.200     431.216
  O     -905.451     766.018     431.449
  O     -906.579     763.892     430.742
  O     -907.007     765.955     429.346
  H     -907.554     763.926     430.732
  H     -904.185     767.479     432.147
  H     -905.349     768.006     430.908
  H     -903.953     767.021     430.432
  H     -898.061     763.372     432.962
  H     -896.934     763.756     431.683
  H     -898.041     762.417     431.499

 3  4  5  6  7  8  9  10  11  12  23  26  30  31 0
 6-311+G(2d,p)
 ****
 33  35  36  37  38 0
 6-311+G(2d,p)
 ****
 1  2  13  14  15  16  17  18  19  20  21  22  24  25 0
 3-21G
 ****
 27  28  29  32  34  39  40  41  42  43  44  45  46  47  48  49 0
 3-21G
 ****


