%nproc=1
%NoSave
%Mem=1900MB
#P OB98/GEN NMR

erre ene a

0 1
  C     -228.032    -104.791      72.706
  O     -226.850    -105.123      73.405
  H     -227.790    -104.680      71.646
  H     -228.437    -103.842      73.069
  H     -228.779    -105.582      72.813
  P     -226.936    -105.338      74.992
  C     -227.767    -103.826      76.924
  O     -227.391    -103.902      75.559
  C     -228.511    -102.520      77.193
  O     -229.664    -102.388      76.336
  C     -229.067    -102.381      78.606
  O     -228.080    -102.121      79.588
  C     -230.003    -101.202      78.403
  O     -229.240     -99.985      78.323
  C     -230.635    -101.560      77.037
  N     -231.909    -102.266      77.171
  C     -233.040    -101.475      77.403
  O     -232.947    -100.252      77.493
  N     -234.258    -102.095      77.563
  C     -234.334    -103.387      77.520
  N     -235.565    -103.947      77.691
  C     -233.165    -104.259      77.301
  C     -231.998    -103.641      77.133
  O     -225.725    -105.928      75.639
  O     -228.264    -106.204      75.209
  H     -228.656     -99.966      79.103
  H     -228.359    -106.375      76.178
  H     -233.278    -105.334      77.302
  H     -231.092    -104.213      76.972
  H     -230.791    -100.660      76.430
  H     -230.723    -101.079      79.212
  H     -229.667    -103.257      78.879
  H     -227.829    -101.696      76.946
  H     -236.347    -103.324      77.840
  H     -226.858    -103.891      77.532
  H     -235.704    -104.946      77.749
  H     -228.426    -104.658      77.180
  P     -228.538    -102.220      81.125
  C     -230.325    -100.996      82.585
  O     -229.672    -101.109      81.330
  O     -227.275    -101.640      81.916
  O     -228.925    -103.589      81.585
  H     -226.720    -102.367      82.259
  H     -231.047    -100.208      82.542
  H     -229.603    -100.777      83.344
  H     -230.817    -101.918      82.816

 6  7  8  9  10  11  12  13  14  15  16  26  30  31  32  33  35 0
 6-311+G(2d,p)
 ****
 37  38 0
 6-311+G(2d,p)
 ****
 1  2  3  4  5  17  18  19  20  21  22  23  24  25 0
 3-21G
 ****
 27  28  29  34  36  39  40  41  42  43  44  45  46 0
 3-21G
 ****


