%nproc=1
%NoSave
%Mem=1900MB
#P OB98/GEN NMR

erre ene a

0 1
  C      146.888      58.899    -129.452
  O      145.781      58.061    -129.763
  P      145.329      56.988    -128.654
  C      142.887      57.906    -128.596
  O      144.089      57.632    -127.866
  C      141.940      56.710    -128.497
  O      141.736      56.320    -127.120
  C      140.550      56.983    -129.055
  O      140.490      56.865    -130.471
  C      139.746      55.863    -128.394
  O      139.944      54.623    -129.113
  C      140.399      55.782    -127.004
  N      136.675      55.500    -123.573
  C      137.300      54.489    -124.298
  N      136.816      53.230    -124.115
  N      138.298      54.681    -125.115
  C      138.670      55.995    -125.198
  C      138.125      57.076    -124.531
  C      137.016      56.847    -123.639
  O      136.392      57.696    -123.016
  N      138.785      58.239    -124.862
  C      139.698      57.863    -125.720
  N      139.649      56.514    -126.002
  O      146.509      57.045    -127.569
  O      145.115      55.604    -129.170
  H      139.334      53.979    -128.702
  H      146.490      56.255    -127.003
  H      135.912      55.281    -122.964
  H      140.414      58.527    -126.192
  H      140.503      54.738    -126.661
  H      138.671      56.061    -128.378
  H      136.007      53.026    -123.563
  H      140.159      57.956    -128.702
  H      137.206      52.495    -124.689
  H      142.395      55.862    -129.022
  H      143.141      58.089    -129.645
  H      142.422      58.810    -128.195
  P      139.493      57.869    -131.247
  C      141.594      58.856    -132.392
  O      140.394      59.122    -131.693
  O      138.588      58.460    -130.047
  O      138.667      57.214    -132.320
  H      137.720      58.731    -130.401
  H      141.943      59.793    -132.855
  H      141.435      58.123    -133.191
  H      142.365      58.493    -131.707
  H      147.077      59.559    -130.273
  H      147.753      58.295    -129.273
  H      146.666      59.473    -128.577

 3  4  5  6  7  8  9  10  11  12  23  26  30  31 0
 6-311+G(2d,p)
 ****
 33  35  36  37  38 0
 6-311+G(2d,p)
 ****
 1  2  13  14  15  16  17  18  19  20  21  22  24  25 0
 3-21G
 ****
 27  28  29  32  34  39  40  41  42  43  44  45  46  47  48  49 0
 3-21G
 ****


