%nproc=1
%NoSave
%Mem=1900MB
#P OB98/GEN NMR

erre ene a

0 1
  C      145.875     273.380      81.121
  O      145.773     273.813      82.463
  P      144.603     273.256      83.406
  C      142.064     273.549      83.662
  O      143.247     274.022      83.029
  C      140.870     273.663      82.720
  O      141.240     273.289      81.373
  C      139.707     272.750      83.076
  O      139.008     273.203      84.221
  C      138.908     272.775      81.780
  O      138.103     273.961      81.699
  C      140.034     272.818      80.724
  N      140.243     271.528      80.084
  C      139.695     271.378      78.806
  O      139.009     272.275      78.314
  N      139.933     270.212      78.124
  C      140.551     269.236      78.713
  N      140.811     268.129      77.967
  C      141.003     269.298      80.118
  C      140.839     270.469      80.729
  O      144.921     273.225      84.863
  O      144.335     271.775      82.854
  H      144.343     271.153      83.607
  H      137.482     273.926      82.453
  H      141.453     268.433      80.582
  H      141.159     270.613      81.756
  H      139.801     273.561      79.952
  H      138.234     271.918      81.689
  H      140.079     271.734      83.255
  H      140.545     274.712      82.707
  H      140.503     268.130      77.003
  H      141.885     274.150      84.559
  H      141.546     267.468      78.210
  H      142.213     272.509      83.972
  P      138.257     272.090      85.098
  C      136.070     270.740      84.782
  O      136.776     271.935      84.512
  O      138.034     272.820      86.507
  O      139.013     270.812      85.263
  H      138.132     272.174      87.231
  H      135.002     270.922      84.632
  H      136.230     270.404      85.812
  H      136.395     269.959      84.088
  H      146.711     273.858      80.655
  H      144.979     273.636      80.595
  H      146.012     272.319      81.098

 3  4  5  6  7  8  9  10  11  12  13  24  27  28  29  30  32 0
 6-311+G(2d,p)
 ****
 34  35 0
 6-311+G(2d,p)
 ****
 1  2  14  15  16  17  18  19  20  21  22  23  25  26 0
 3-21G
 ****
 31  33  36  37  38  39  40  41  42  43  44  45  46 0
 3-21G
 ****


