%nproc=1
%NoSave
%Mem=1900MB
#P OB98/GEN NMR

erre ene a

0 1
  C       91.374     394.112     582.486
  O       92.044     393.175     581.655
  P       91.316     391.768     581.374
  C       92.074     389.248     581.338
  O       92.384     390.604     581.638
  C       93.126     388.297     581.926
  O       94.359     388.466     581.194
  C       93.482     388.540     583.386
  O       94.113     387.362     583.905
  C       94.509     389.652     583.278
  O       95.291     389.761     584.465
  C       95.282     389.257     581.997
  N       95.778     390.418     581.216
  C       96.621     391.326     581.851
  O       96.994     391.239     583.016
  N       97.021     392.406     581.097
  C       96.677     392.634     579.784
  O       96.999     393.651     579.182
  C       95.909     391.571     579.128
  C       95.487     390.541     579.869
  O       91.100     391.752     579.792
  O       90.030     391.605     582.123
  H       95.948     390.489     584.299
  H       90.176     391.923     579.573
  H       97.578     393.100     581.552
  H       95.675     391.670     578.078
  H       94.896     389.755     579.402
  H       96.161     388.632     582.239
  H       94.000     390.604     583.129
  H       92.634     388.824     584.027
  H       92.791     387.261     581.773
  H       92.011     389.121     580.243
  H       91.081     388.999     581.745
  P       93.593     386.790     585.311
  C       94.255     387.073     587.786
  O       94.463     387.523     586.451
  O       93.500     385.301     585.417
  O       92.147     387.476     585.473
  H       91.622     386.983     586.128
  H       95.179     387.215     588.342
  H       93.982     386.000     587.820
  H       93.457     387.668     588.247
  H       91.972     394.994     582.583
  H       91.214     393.681     583.452
  H       90.431     394.367     582.048

 3  4  5  6  7  8  9  10  11  12  13  23  28  29  30  31  32 0
 6-311+G(2d,p)
 ****
 33  34 0
 6-311+G(2d,p)
 ****
 1  2  14  15  16  17  18  19  20  21  22  24  25  26  27 0
 3-21G
 ****
 35  36  37  38  39  40  41  42  43  44  45 0
 3-21G
 ****


