%nproc=1
%NoSave
%Mem=1900MB
#P OB98/GEN NMR

erre ene a

0 1
  C      -64.272       3.411    -444.029
  O      -64.302       3.385    -442.619
  P      -63.298       2.515    -441.733
  C      -65.101       2.247    -439.878
  O      -63.768       2.623    -440.196
  C      -65.468       2.507    -438.409
  O      -64.492       1.883    -437.549
  C      -65.398       4.013    -438.110
  O      -66.498       4.849    -438.418
  C      -64.895       4.111    -436.670
  O      -65.956       4.310    -435.736
  C      -64.222       2.755    -436.444
  N      -60.450       3.973    -433.282
  C      -61.783       3.752    -432.996
  N      -62.186       4.078    -431.750
  N      -62.637       3.272    -433.868
  C      -62.106       3.082    -435.098
  C      -60.798       3.253    -435.493
  C      -59.854       3.739    -434.511
  O      -58.684       4.030    -434.744
  N      -60.637       3.036    -436.839
  C      -61.854       2.771    -437.266
  N      -62.787       2.830    -436.257
  O      -61.841       2.631    -442.050
  O      -63.757       1.017    -442.120
  H      -65.574       4.302    -434.845
  H      -62.959       0.454    -442.108
  H      -59.851       4.416    -432.589
  H      -62.121       2.569    -438.294
  H      -64.634       2.267    -435.553
  H      -64.216       4.965    -436.556
  H      -61.595       4.582    -431.105
  H      -64.580       4.419    -438.720
  H      -63.184       4.089    -431.562
  H      -66.427       2.055    -438.153
  H      -65.215       1.183    -440.119
  H      -65.798       2.799    -440.520
  P      -66.423       6.367    -438.917
  C      -68.558       6.871    -437.594
  O      -67.893       7.000    -438.839
  O      -66.172       6.248    -440.497
  O      -65.347       7.191    -438.282
  H      -65.773       7.074    -440.832
  H      -69.623       7.050    -437.733
  H      -68.158       7.616    -436.894
  H      -68.410       5.866    -437.174
  H      -65.039       4.064    -444.390
  H      -64.437       2.424    -444.408
  H      -63.318       3.765    -444.359

 3  4  5  6  7  8  9  10  11  12  23  26  30  31 0
 6-311+G(2d,p)
 ****
 33  35  36  37  38 0
 6-311+G(2d,p)
 ****
 1  2  13  14  15  16  17  18  19  20  21  22  24  25 0
 3-21G
 ****
 27  28  29  32  34  39  40  41  42  43  44  45  46  47  48  49 0
 3-21G
 ****


