%nproc=1
%NoSave
%Mem=1900MB
#P OB98/GEN NMR

erre ene a

0 1
  C      -19.496     118.163     -40.063
  O      -18.353     117.895     -40.885
  P      -17.377     116.650     -40.611
  C      -18.710     115.007     -42.083
  O      -18.218     115.292     -40.777
  C      -18.970     113.509     -42.276
  O      -20.013     113.053     -41.391
  C      -19.414     113.120     -43.683
  O      -18.305     113.073     -44.561
  C      -20.088     111.778     -43.422
  O      -19.107     110.733     -43.326
  C      -20.755     112.015     -42.061
  N      -25.529     110.634     -40.854
  C      -24.329     110.078     -40.576
  N      -23.099     110.502     -40.939
  C      -23.183     111.644     -41.641
  C      -24.334     112.328     -42.004
  C      -25.554     111.777     -41.581
  N      -26.775     112.339     -41.878
  N      -24.024     113.448     -42.748
  C      -22.707     113.451     -42.815
  N      -22.154     112.384     -42.164
  O      -16.608     116.743     -39.335
  O      -16.386     116.627     -41.869
  H      -18.644     110.686     -44.182
  H      -15.532     116.233     -41.608
  H      -24.362     109.168     -39.984
  H      -22.114     114.201     -43.320
  H      -20.694     111.127     -41.422
  H      -20.790     111.495     -44.215
  H      -20.161     113.835     -44.052
  H      -18.054     112.973     -42.004
  H      -17.967     115.346     -42.814
  H      -27.609     111.864     -41.565
  H      -26.807     113.164     -42.459
  H      -19.639     115.569     -42.236
  P      -18.536     112.981     -46.144
  C      -18.466     115.546     -46.151
  O      -19.141     114.389     -46.613
  O      -19.281     111.780     -46.618
  O      -17.052     113.019     -46.744
  H      -17.031     112.525     -47.585
  H      -18.770     115.758     -45.124
  H      -18.743     116.391     -46.787
  H      -17.381     115.410     -46.192
  H      -19.999     119.035     -40.425
  H      -19.179     118.327     -39.054
  H      -20.163     117.327     -40.096

 3  4  5  6  7  8  9  10  11  12  22  25  29  30  31  32 0
 6-311+G(2d,p)
 ****
 33  36  37 0
 6-311+G(2d,p)
 ****
 1  2  13  14  15  16  17  18  19  20  21  23  24  26 0
 3-21G
 ****
 27  28  34  35  38  39  40  41  42  43  44  45  46  47  48 0
 3-21G
 ****


