%nproc=1
%NoSave
%Mem=1900MB
#P OB98/GEN NMR

erre ene a

0 1
  C      -11.861      32.650      72.051
  O      -10.865      33.641      71.915
  H      -12.492      32.905      72.907
  H      -11.408      31.672      72.231
  H      -12.487      32.612      71.156
  P       -9.760      33.469      70.768
  C      -11.282      33.629      68.690
  O      -10.294      34.275      69.487
  C      -10.896      33.703      67.209
  O      -11.969      33.101      66.444
  C      -10.707      35.147      66.722
  O       -9.452      35.361      66.079
  C      -11.969      35.411      65.912
  O      -11.829      36.390      64.903
  C      -12.352      34.017      65.401
  N      -13.770      33.872      65.083
  C      -14.182      34.264      63.812
  O      -13.444      34.699      62.931
  N      -15.523      34.130      63.559
  C      -16.463      33.664      64.426
  O      -17.650      33.560      64.139
  C      -15.971      33.287      65.759
  C      -14.667      33.408      66.023
  O       -9.329      32.069      70.490
  O       -8.535      34.370      71.273
  H      -12.685      36.457      64.432
  H       -7.841      33.797      71.647
  H      -15.830      34.400      62.638
  H      -16.691      32.922      66.477
  H      -14.269      33.137      66.996
  H      -11.784      33.769      64.505
  H      -12.748      35.767      66.597
  H      -10.677      35.843      67.568
  H       -9.996      33.099      67.048
  H      -12.236      34.138      68.860
  H      -11.376      32.582      68.997
  P       -8.254      36.221      66.688
  C       -6.555      34.706      67.988
  O       -6.957      35.289      66.757
  O       -8.584      37.013      67.907
  O       -7.910      37.265      65.507
  H       -7.611      38.089      65.942
  H       -5.673      34.121      67.834
  H       -7.339      34.079      68.358
  H       -6.351      35.479      68.699

 6  7  8  9  10  11  12  13  14  15  16  26  31  32  33  34  35 0
 6-311+G(2d,p)
 ****
 36  37 0
 6-311+G(2d,p)
 ****
 1  2  3  4  5  17  18  19  20  21  22  23  24  25 0
 3-21G
 ****
 27  28  29  30  38  39  40  41  42  43  44  45 0
 3-21G
 ****


