%nproc=1
%NoSave
%Mem=1900MB
#P OB98/GEN NMR

erre ene a

0 1
  C      -78.130     -61.082     -82.638
  O      -78.238     -59.672     -82.653
  P      -77.118     -58.774     -83.357
  C      -76.186     -57.822     -81.170
  O      -75.904     -58.611     -82.318
  C      -74.902     -57.382     -80.469
  O      -75.247     -56.584     -79.304
  C      -74.009     -58.534     -79.986
  O      -72.655     -58.085     -80.110
  C      -74.374     -58.646     -78.515
  O      -73.375     -59.304     -77.745
  C      -74.575     -57.175     -78.172
  N      -75.862     -53.899     -74.465
  C      -74.991     -53.798     -75.491
  N      -74.685     -54.725     -76.420
  C      -75.387     -55.851     -76.219
  C      -76.288     -56.112     -75.199
  C      -76.535     -55.063     -74.297
  N      -77.446     -55.137     -73.266
  N      -76.761     -57.408     -75.295
  C      -76.158     -57.913     -76.352
  N      -75.369     -56.988     -76.977
  O      -77.607     -57.493     -83.947
  O      -76.505     -59.731     -84.483
  H      -73.564     -59.151     -76.800
  H      -76.819     -59.449     -85.364
  H      -74.475     -52.846     -75.580
  H      -76.254     -58.930     -76.704
  H      -73.623     -56.650     -78.031
  H      -75.308     -59.211     -78.411
  H      -74.158     -59.470     -80.529
  H      -74.347     -56.729     -81.153
  H      -76.783     -58.428     -80.482
  H      -77.640     -54.284     -72.765
  H      -78.142     -55.879     -73.279
  H      -76.777     -56.945     -81.458
  P      -71.671     -58.797     -81.156
  C      -70.827     -60.449     -79.394
  O      -71.474     -60.301     -80.644
  O      -70.415     -58.053     -81.460
  O      -72.583     -58.977     -82.463
  H      -72.013     -59.141     -83.238
  H      -69.746     -60.361     -79.531
  H      -71.055     -61.439     -78.990
  H      -71.164     -59.690     -78.682
  H      -78.971     -61.499     -82.124
  H      -77.229     -61.365     -82.136
  H      -78.109     -61.449     -83.643

 3  4  5  6  7  8  9  10  11  12  22  25  29  30  31  32 0
 6-311+G(2d,p)
 ****
 33  36  37 0
 6-311+G(2d,p)
 ****
 1  2  13  14  15  16  17  18  19  20  21  23  24  26 0
 3-21G
 ****
 27  28  34  35  38  39  40  41  42  43  44  45  46  47  48 0
 3-21G
 ****


