%nproc=1
%NoSave
%Mem=1900MB
#P OB98/GEN NMR

erre ene a

0 1
  C     -202.036    -213.200     310.584
  O     -202.574    -212.354     309.581
  P     -201.752    -212.204     308.208
  C     -202.493    -212.210     305.682
  O     -202.855    -212.092     307.051
  C     -203.702    -212.647     304.847
  O     -204.057    -214.005     305.171
  C     -204.963    -211.829     305.097
  O     -204.919    -210.568     304.448
  C     -206.038    -212.777     304.563
  O     -206.111    -212.693     303.130
  C     -205.482    -214.148     304.990
  N     -206.113    -214.685     306.193
  C     -206.993    -215.748     306.007
  O     -207.239    -216.230     304.899
  N     -207.600    -216.228     307.137
  C     -207.471    -215.724     308.398
  O     -208.069    -216.165     309.369
  C     -206.551    -214.580     308.530
  C     -205.929    -214.119     307.441
  O     -201.154    -213.680     308.063
  O     -200.740    -211.108     308.248
  H     -201.714    -214.343     308.502
  H     -206.960    -213.107     302.875
  H     -208.228    -217.016     307.028
  H     -206.431    -214.142     309.512
  H     -205.258    -213.270     307.517
  H     -205.612    -214.882     304.176
  H     -207.033    -212.553     304.956
  H     -205.110    -211.682     306.175
  H     -203.419    -212.608     303.790
  H     -201.694    -212.954     305.588
  H     -202.115    -211.245     305.327
  P     -206.194    -209.607     304.647
  C     -206.475    -207.077     305.238
  O     -205.618    -208.193     305.133
  O     -206.859    -210.238     305.959
  O     -207.096    -209.564     303.456
  H     -206.202    -210.478     306.633
  H     -206.011    -206.340     305.903
  H     -207.449    -207.356     305.649
  H     -206.611    -206.626     304.253
  H     -202.685    -213.202     311.435
  H     -201.070    -212.841     310.873
  H     -201.946    -214.195     310.201

 3  4  5  6  7  8  9  10  11  12  13  24  28  29  30  31  32 0
 6-311+G(2d,p)
 ****
 33  34 0
 6-311+G(2d,p)
 ****
 1  2  14  15  16  17  18  19  20  21  22  23  25  26  27 0
 3-21G
 ****
 35  36  37  38  39  40  41  42  43  44  45 0
 3-21G
 ****


