%nproc=1
%NoSave
%Mem=1900MB
#P OB98/GEN NMR

erre ene a

0 1
  C       75.799     351.216     -84.473
  O       75.596     352.372     -85.258
  H       75.023     351.178     -83.703
  H       76.775     351.254     -83.983
  H       75.725     350.315     -85.088
  P       76.610     352.665     -86.466
  C       77.937     354.335     -84.994
  O       77.969     353.126     -85.735
  C       79.212     354.481     -84.167
  O       79.235     353.545     -83.071
  C       80.504     354.209     -84.928
  O       80.867     355.242     -85.830
  C       81.475     354.090     -83.768
  O       81.772     355.399     -83.249
  C       80.631     353.266     -82.765
  N       80.901     351.831     -82.846
  C       82.175     351.408     -82.452
  O       83.017     352.220     -82.069
  N       82.484     350.072     -82.536
  C       81.606     349.235     -82.993
  N       81.968     347.924     -83.060
  C       80.259     349.639     -83.437
  C       79.974     350.936     -83.337
  O       76.111     353.586     -87.533
  O       77.014     351.216     -87.011
  H       80.953     355.733     -82.841
  H       77.635     351.341     -87.770
  H       79.574     348.906     -83.841
  H       79.007     351.310     -83.649
  H       80.811     353.603     -81.734
  H       82.424     353.629     -84.040
  H       80.460     353.240     -85.442
  H       79.209     355.489     -83.731
  H       82.898     347.676     -82.747
  H       77.052     354.320     -84.350
  H       81.377     347.214     -83.472
  H       77.868     355.190     -85.673
  P       81.662     354.803     -87.158
  C       84.034     355.282     -86.172
  O       83.114     354.325     -86.675
  O       81.931     356.196     -87.892
  O       80.949     353.818     -88.030
  H       81.273     356.347     -88.599
  H       84.945     354.792     -85.899
  H       83.615     355.762     -85.312
  H       84.235     356.014     -86.926

 6  7  8  9  10  11  12  13  14  15  16  26  30  31  32  33  35 0
 6-311+G(2d,p)
 ****
 37  38 0
 6-311+G(2d,p)
 ****
 1  2  3  4  5  17  18  19  20  21  22  23  24  25 0
 3-21G
 ****
 27  28  29  34  36  39  40  41  42  43  44  45  46 0
 3-21G
 ****


