%nproc=1
%NoSave
%Mem=1900MB
#P OB98/GEN NMR

erre ene a

0 1
  C      620.912     367.870      28.329
  O      619.894     367.072      27.749
  P      618.682     366.488      28.629
  C      617.300     368.662      28.423
  O      617.975     367.765      29.282
  C      615.786     368.577      28.635
  O      615.142     369.577      27.805
  C      615.176     367.213      28.284
  O      614.100     366.981      29.206
  C      614.640     367.436      26.888
  O      613.617     366.512      26.536
  C      614.172     368.893      26.982
  N      614.052     369.530      25.671
  C      612.856     369.354      24.976
  O      611.950     368.665      25.438
  N      612.716     369.970      23.757
  C      613.706     370.621      23.244
  N      613.492     371.264      22.060
  C      615.021     370.744      23.897
  C      615.117     370.198      25.107
  O      619.074     365.423      29.600
  O      617.600     366.021      27.551
  H      613.984     365.612      26.589
  H      617.760     365.108      27.209
  H      615.829     371.273      23.415
  H      616.034     370.255      25.669
  H      613.219     368.950      27.514
  H      615.452     367.325      26.160
  H      615.895     366.394      28.355
  H      615.576     368.836      29.681
  H      612.534     371.309      21.730
  H      617.523     368.380      27.386
  H      614.081     372.036      21.769
  H      617.666     369.681      28.587
  P      613.511     365.495      29.322
  C      614.945     365.061      31.439
  O      614.543     364.605      30.165
  O      613.737     364.938      27.831
  O      612.063     365.380      29.689
  H      613.083     364.239      27.645
  H      615.639     364.329      31.868
  H      614.080     365.148      32.102
  H      615.452     366.023      31.360
  H      621.616     368.153      27.575
  H      621.412     367.311      29.092
  H      620.476     368.748      28.757

 3  4  5  6  7  8  9  10  11  12  13  23  27  28  29  30  32 0
 6-311+G(2d,p)
 ****
 34  35 0
 6-311+G(2d,p)
 ****
 1  2  14  15  16  17  18  19  20  21  22  24  25  26 0
 3-21G
 ****
 31  33  36  37  38  39  40  41  42  43  44  45  46 0
 3-21G
 ****


