%nproc=1
%NoSave
%Mem=1900MB
#P OB98/GEN NMR

erre ene a

0 1
  C      199.145     -46.930     383.008
  O      199.527     -46.751     381.630
  P      200.362     -45.441     381.213
  C      202.620     -46.734     380.948
  O      201.907     -45.676     381.575
  C      204.078     -46.733     381.416
  O      204.183     -47.248     382.762
  C      205.008     -47.606     380.583
  O      205.345     -46.994     379.351
  C      206.193     -47.770     381.526
  O      207.074     -46.636     381.446
  C      205.499     -47.824     382.903
  N      205.436     -49.177     383.449
  C      206.420     -49.520     384.370
  O      207.340     -48.765     384.686
  N      206.333     -50.778     384.901
  C      205.422     -51.732     384.553
  O      205.402     -52.853     385.047
  C      204.455     -51.344     383.512
  C      204.513     -50.105     383.011
  O      199.915     -44.389     382.342
  O      200.080     -44.902     379.846
  H      206.506     -45.841     381.419
  H      199.977     -43.482     381.986
  H      207.019     -51.034     385.594
  H      203.730     -52.078     383.192
  H      203.805     -49.803     382.242
  H      206.032     -47.185     383.617
  H      206.791     -48.658     381.296
  H      204.544     -48.586     380.416
  H      204.433     -45.692     381.424
  H      202.591     -46.594     379.864
  H      202.137     -47.685     381.194
  P      204.552     -47.505     378.048
  C      203.549     -45.121     377.674
  O      203.317     -46.499     377.882
  O      203.911     -48.867     378.598
  O      205.436     -47.670     376.854
  H      203.681     -48.808     379.542
  H      204.457     -44.946     377.095
  H      203.631     -44.619     378.641
  H      202.695     -44.703     377.132
  H      198.600     -47.845     383.111
  H      198.529     -46.111     383.317
  H      200.022     -46.967     383.619

 3  4  5  6  7  8  9  10  11  12  13  23  28  29  30  31  32 0
 6-311+G(2d,p)
 ****
 33  34 0
 6-311+G(2d,p)
 ****
 1  2  14  15  16  17  18  19  20  21  22  24  25  26 0
 3-21G
 ****
 27  35  36  37  38  39  40  41  42  43  44  45 0
 3-21G
 ****


