%nproc=1
%NoSave
%Mem=1900MB
#P OB98/GEN NMR

erre ene a

0 1
  C      -30.988     -30.515     -69.990
  O      -30.550     -29.918     -71.199
  P      -29.067     -29.301     -71.238
  C      -29.825     -27.124     -70.025
  O      -28.971     -28.256     -70.024
  C      -29.302     -26.058     -69.059
  O      -28.998     -26.693     -67.790
  C      -28.029     -25.340     -69.523
  O      -28.096     -24.001     -69.015
  C      -26.928     -26.100     -68.809
  O      -25.725     -25.346     -68.692
  C      -27.614     -26.415     -67.484
  N      -23.650     -28.030     -64.791
  C      -23.871     -26.804     -65.392
  N      -22.927     -25.860     -65.193
  N      -24.923     -26.528     -66.118
  C      -25.789     -27.566     -66.213
  C      -25.663     -28.835     -65.700
  C      -24.515     -29.114     -64.868
  O      -24.321     -30.156     -64.247
  N      -26.703     -29.638     -66.084
  C      -27.496     -28.833     -66.761
  N      -27.008     -27.556     -66.827
  O      -29.103     -28.372     -72.537
  O      -27.952     -30.299     -71.274
  H      -25.017     -25.956     -68.403
  H      -28.769     -28.849     -73.321
  H      -22.830     -28.177     -64.228
  H      -28.431     -29.115     -67.218
  H      -27.581     -25.572     -66.782
  H      -26.696     -27.019     -69.361
  H      -22.108     -25.994     -64.621
  H      -27.902     -25.330     -70.608
  H      -23.080     -24.943     -65.595
  H      -30.105     -25.334     -68.878
  H      -30.822     -27.433     -69.696
  H      -29.904     -26.724     -71.040
  P      -27.091     -22.915     -69.630
  C      -25.250     -23.471     -67.896
  O      -25.602     -23.370     -69.261
  O      -27.328     -21.639     -68.689
  O      -27.338     -22.572     -71.062
  H      -27.199     -20.823     -69.206
  H      -24.395     -24.146     -67.802
  H      -26.075     -23.863     -67.294
  H      -24.963     -22.486     -67.520
  H      -31.987     -30.879     -70.113
  H      -30.967     -29.788     -69.205
  H      -30.340     -31.329     -69.739

 3  4  5  6  7  8  9  10  11  12  23  26  30  31 0
 6-311+G(2d,p)
 ****
 33  35  36  37  38 0
 6-311+G(2d,p)
 ****
 1  2  13  14  15  16  17  18  19  20  21  22  24  25 0
 3-21G
 ****
 27  28  29  32  34  39  40  41  42  43  44  45  46  47  48  49 0
 3-21G
 ****


