%nproc=1
%NoSave
%Mem=1900MB
#P OB98/GEN NMR

erre ene a

0 1
  C      658.152     -40.384    -895.410
  O      658.168     -41.674    -894.850
  H      657.126     -40.141    -895.720
  H      658.802     -40.355    -896.300
  H      658.482     -39.636    -894.680
  P      659.530     -42.143    -894.140
  C      661.914     -42.651    -895.040
  O      660.524     -42.600    -895.320
  C      662.717     -42.451    -896.320
  O      662.255     -41.277    -897.030
  C      664.215     -42.258    -896.110
  O      664.892     -43.509    -895.940
  C      664.604     -41.588    -897.410
  O      664.674     -42.568    -898.460
  C      663.409     -40.645    -897.650
  N      666.161     -36.385    -897.820
  C      666.295     -37.553    -898.550
  N      667.293     -37.607    -899.440
  N      665.499     -38.585    -898.410
  C      664.539     -38.406    -897.460
  C      664.312     -37.299    -896.680
  C      665.188     -36.162    -896.860
  O      665.107     -35.089    -896.250
  N      663.252     -37.480    -895.850
  C      662.830     -38.704    -896.120
  N      663.590     -39.319    -897.080
  O      659.133     -43.523    -893.440
  O      660.110     -41.173    -893.160
  H      665.512     -43.056    -898.340
  H      659.616     -43.604    -892.590
  H      666.807     -35.630    -897.960
  H      661.989     -39.198    -895.630
  H      663.185     -40.509    -898.710
  H      665.572     -41.097    -897.360
  H      667.975     -36.860    -899.560
  H      664.412     -41.573    -895.270
  H      667.383     -38.441    -900.000
  H      662.533     -43.311    -896.980
  H      662.167     -43.633    -894.600
  H      662.157     -41.872    -894.320
  P      666.340     -43.474    -895.260
  C      668.590     -42.315    -895.890
  O      667.320     -42.804    -896.330
  O      666.777     -45.024    -895.280
  O      666.375     -42.891    -893.880
  H      667.452     -45.191    -894.580
  H      669.120     -41.900    -896.722
  H      669.157     -43.120    -895.472
  H      668.443     -41.559    -895.147

 6  7  8  9  10  11  12  13  14  15  26  29  33  34 0
 6-311+G(2d,p)
 ****
 36  38  39  40  41 0
 6-311+G(2d,p)
 ****
 1  2  3  4  5  16  17  18  19  20  21  22  23  24  25 0
 3-21G
 ****
 27  28  30  31  32  35  37  42  43  44  45  46  47 0
 3-21G
 ****
 48  49 0
 3-21G
 ****


