%nproc=1
%NoSave
%Mem=1900MB
#P OB98/GEN NMR

erre ene a

0 1
  C      -44.441    -150.472     151.162
  O      -44.410    -150.225     152.554
  H      -45.465    -150.726     150.873
  H      -43.788    -151.311     150.905
  H      -44.134    -149.579     150.609
  P      -42.998    -149.907     153.242
  C      -43.309    -152.262     154.267
  O      -42.854    -150.927     154.469
  C      -43.522    -152.966     155.607
  O      -43.999    -154.309     155.396
  C      -42.260    -153.096     156.449
  O      -41.924    -151.859     157.042
  C      -42.683    -154.192     157.416
  O      -43.523    -153.663     158.455
  C      -43.495    -155.124     156.482
  N      -42.716    -156.249     155.968
  C      -42.981    -157.494     156.549
  O      -43.813    -157.597     157.451
  N      -42.276    -158.587     156.102
  C      -41.422    -158.461     155.136
  N      -40.759    -159.579     154.738
  C      -41.140    -157.170     154.474
  C      -41.806    -156.117     154.941
  O      -42.744    -148.474     153.597
  O      -41.925    -150.452     152.188
  H      -43.656    -154.392     159.096
  H      -41.629    -149.734     151.596
  H      -40.425    -157.111     153.665
  H      -41.658    -155.133     154.508
  H      -44.369    -155.528     157.006
  H      -41.833    -154.665     157.905
  H      -41.434    -153.479     155.839
  H      -44.305    -152.420     156.154
  H      -41.002    -160.446     155.210
  H      -42.538    -152.782     153.688
  H      -40.200    -159.632     153.897
  H      -44.239    -152.268     153.684
  P      -40.570    -151.085     156.660
  C      -38.964    -152.416     158.169
  O      -39.634    -151.180     157.961
  O      -40.755    -149.708     156.117
  O      -39.841    -152.081     155.641
  H      -40.262    -152.028     154.744
  H      -38.375    -152.357     159.061
  H      -38.327    -152.621     157.334
  H      -39.685    -153.200     158.269

 6  7  8  9  10  11  12  13  14  15  16  26  30  31  32  33  35 0
 6-311+G(2d,p)
 ****
 37  38 0
 6-311+G(2d,p)
 ****
 1  2  3  4  5  17  18  19  20  21  22  23  24  25 0
 3-21G
 ****
 27  28  29  34  36  39  40  41  42  43  44  45  46 0
 3-21G
 ****


