%nproc=1
%NoSave
%Mem=1900MB
#P OB98/GEN NMR

erre ene a

0 1
  C      -18.889     263.098     134.237
  O      -18.384     261.845     133.768
  P      -19.059     261.160     132.486
  C      -17.250     261.519     130.683
  O      -17.903     260.586     131.532
  C      -15.813     261.066     130.370
  O      -15.049     260.966     131.601
  C      -15.755     259.704     129.665
  O      -14.957     259.720     128.479
  C      -15.297     258.755     130.760
  O      -14.675     257.582     130.256
  C      -14.443     259.661     131.654
  N      -14.347     259.149     133.026
  C      -13.163     258.512     133.373
  O      -12.250     258.303     132.573
  N      -13.079     258.061     134.662
  C      -14.075     258.113     135.593
  O      -13.965     257.653     136.722
  C      -15.329     258.739     135.149
  C      -15.405     259.220     133.904
  O      -20.109     261.968     131.795
  O      -19.695     259.816     133.097
  H      -13.906     257.852     129.709
  H      -20.557     259.664     132.659
  H      -12.217     257.615     134.935
  H      -16.147     258.779     135.853
  H      -16.322     259.673     133.550
  H      -13.421     259.742     131.268
  H      -16.180     258.434     131.329
  H      -16.745     259.395     129.308
  H      -15.359     261.843     129.744
  H      -17.214     262.493     131.171
  H      -17.842     261.656     129.772
  P      -15.471     259.268     127.032
  C      -16.835     261.380     126.402
  O      -15.697     260.582     126.147
  O      -16.606     258.299     127.020
  O      -14.166     258.602     126.378
  H      -14.430     257.807     125.877
  H      -17.041     261.992     125.519
  H      -16.632     262.047     127.248
  H      -17.714     260.766     126.623
  H      -18.329     263.410     135.094
  H      -19.919     262.990     134.505
  H      -18.797     263.832     133.464

 3  4  5  6  7  8  9  10  11  12  13  23  28  29  30  31  32 0
 6-311+G(2d,p)
 ****
 33  34 0
 6-311+G(2d,p)
 ****
 1  2  14  15  16  17  18  19  20  21  22  24  25  26  27 0
 3-21G
 ****
 35  36  37  38  39  40  41  42  43  44  45 0
 3-21G
 ****


