%nproc=1
%NoSave
%Mem=1900MB
#P OB98/GEN NMR

erre ene a

0 1
  C     -445.320      34.372    -143.737
  O     -444.776      34.684    -142.449
  P     -445.191      36.092    -141.798
  C     -444.666      35.054    -139.465
  O     -444.555      36.179    -140.329
  C     -443.320      34.324    -139.362
  O     -442.835      33.942    -140.663
  C     -442.223      35.185    -138.763
  O     -442.357      35.257    -137.355
  C     -440.958      34.462    -139.226
  O     -440.547      33.459    -138.282
  C     -441.403      33.811    -140.555
  N     -440.731      34.383    -141.718
  C     -439.369      34.098    -141.836
  O     -438.795      33.418    -140.981
  N     -438.684      34.616    -142.910
  C     -439.300      35.370    -143.770
  N     -438.566      35.856    -144.811
  C     -440.736      35.715    -143.662
  C     -441.384      35.198    -142.618
  O     -446.759      35.912    -141.510
  O     -444.921      37.270    -142.675
  H     -439.791      32.996    -138.695
  H     -447.218      36.767    -141.606
  H     -441.204      36.353    -144.400
  H     -442.439      35.398    -142.461
  H     -441.192      32.731    -140.543
  H     -440.120      35.154    -139.344
  H     -442.251      36.193    -139.200
  H     -443.460      33.417    -138.756
  H     -437.592      35.600    -144.851
  H     -445.428      34.365    -139.836
  H     -438.945      36.453    -145.527
  H     -445.004      35.394    -138.479
  P     -442.813      36.656    -136.715
  C     -444.130      35.555    -134.795
  O     -443.016      36.351    -135.148
  O     -444.332      36.772    -137.227
  O     -442.017      37.865    -137.064
  H     -444.704      37.636    -136.984
  H     -444.038      35.256    -133.751
  H     -444.183      34.658    -135.423
  H     -445.053      36.140    -134.910
  H     -444.965      33.413    -144.051
  H     -445.013      35.115    -144.443
  H     -446.388      34.356    -143.679

 3  4  5  6  7  8  9  10  11  12  13  21  23  27  28  29  30  32 0
 6-311+G(2d,p)
 ****
 34  35 0
 6-311+G(2d,p)
 ****
 1  2  14  15  16  17  18  19  20  22  24  25  26 0
 3-21G
 ****
 31  33  36  37  38  39  40  41  42  43  44  45  46 0
 3-21G
 ****


