%nproc=1
%NoSave
%Mem=1900MB
#P OB98/GEN NMR

erre ene a

0 1
  C       92.739    -278.019    -326.970
  O       91.388    -278.423    -326.703
  P       90.361    -278.886    -327.846
  C       88.219    -278.011    -328.984
  O       89.316    -277.701    -328.135
  C       87.928    -276.872    -329.971
  O       87.637    -275.641    -329.242
  C       89.079    -276.561    -330.949
  O       88.471    -276.257    -332.208
  C       89.704    -275.328    -330.314
  O       90.516    -274.583    -331.204
  C       88.437    -274.604    -329.845
  N       88.654    -273.504    -328.909
  C       88.205    -272.232    -329.286
  O       87.698    -272.028    -330.387
  N       88.362    -271.193    -328.397
  C       88.921    -271.399    -327.247
  N       89.034    -270.333    -326.413
  C       89.424    -272.714    -326.822
  C       89.257    -273.711    -327.688
  O       89.706    -280.200    -327.567
  O       91.230    -278.964    -329.188
  H       90.906    -279.709    -329.734
  H       89.927    -274.104    -331.817
  H       89.878    -272.846    -325.848
  H       89.576    -274.718    -327.437
  H       87.884    -274.238    -330.720
  H       90.331    -275.646    -329.475
  H       89.772    -277.397    -331.084
  H       87.016    -277.130    -330.523
  H       88.668    -269.443    -326.739
  H       87.336    -278.179    -328.366
  H       89.444    -270.381    -325.490
  H       88.441    -278.935    -329.528
  P       88.582    -277.303    -333.416
  C       89.869    -277.387    -335.681
  O       89.714    -276.767    -334.421
  O       87.239    -276.999    -334.244
  O       88.635    -278.746    -333.039
  H       86.984    -277.793    -334.744
  H       89.988    -276.611    -336.442
  H       89.012    -278.010    -335.947
  H       90.769    -278.006    -335.667
  H       93.221    -277.757    -326.051
  H       92.735    -277.173    -327.625
  H       93.268    -278.826    -327.433

 3  4  5  6  7  8  9  10  11  12  13  24  27  28  29  30  32 0
 6-311+G(2d,p)
 ****
 34  35 0
 6-311+G(2d,p)
 ****
 1  2  14  15  16  17  18  19  20  21  22  23  25  26 0
 3-21G
 ****
 31  33  36  37  38  39  40  41  42  43  44  45  46 0
 3-21G
 ****


