%nproc=1
%NoSave
%Mem=1900MB
#P OB98/GEN NMR

erre ene a

0 1
  C     -377.333     849.516    -586.682
  O     -378.078     850.725    -586.650
  H     -376.426     849.655    -586.095
  H     -377.056     849.262    -587.704
  H     -377.919     848.701    -586.239
  P     -379.447     850.800    -587.481
  C     -378.339     853.023    -588.194
  O     -379.551     852.300    -588.029
  C     -378.623     854.435    -588.721
  O     -378.725     854.429    -590.156
  C     -379.934     855.039    -588.191
  O     -379.747     855.579    -586.898
  C     -380.172     856.113    -589.248
  O     -379.301     857.240    -589.005
  C     -379.736     855.397    -590.541
  N     -383.122     855.600    -594.324
  C     -382.278     856.574    -593.834
  N     -382.372     857.787    -594.413
  N     -381.434     856.384    -592.856
  C     -381.505     855.145    -592.328
  C     -382.302     854.092    -592.714
  C     -383.191     854.295    -593.837
  O     -383.929     853.445    -594.321
  N     -382.163     853.005    -591.880
  C     -381.232     853.383    -591.025
  N     -380.791     854.679    -591.237
  O     -380.678     850.324    -586.763
  O     -379.155     849.945    -588.806
  H     -379.513     857.920    -589.674
  H     -379.416     849.011    -588.693
  H     -383.765     855.803    -595.077
  H     -380.815     852.764    -590.227
  H     -379.285     856.084    -591.263
  H     -381.190     856.490    -589.237
  H     -383.105     858.032    -595.059
  H     -380.752     854.319    -588.238
  H     -381.810     858.538    -594.033
  H     -377.760     855.078    -588.449
  H     -377.721     852.470    -588.914
  H     -377.797     853.091    -587.239
  P     -380.993     855.800    -585.894
  C     -381.409     858.234    -586.695
  O     -381.032     857.383    -585.623
  O     -380.970     854.948    -584.674
  O     -382.277     855.594    -586.828
  H     -382.552     854.650    -586.911
  H     -381.389     859.252    -586.366
  H     -382.398     857.983    -587.019
  H     -380.725     858.108    -587.508

 6  7  8  9  10  11  12  13  14  15  26  29  33  34 0
 6-311+G(2d,p)
 ****
 36  38  39  40  41 0
 6-311+G(2d,p)
 ****
 1  2  3  4  5  16  17  18  19  20  21  22  23  24  25 0
 3-21G
 ****
 27  28  30  31  32  35  37  42  43  44  45  46  47 0
 3-21G
 ****
 48  49 0
 3-21G
 ****


