%nproc=1
%NoSave
%Mem=1900MB
#P OB98/GEN NMR

erre ene a

0 1
  C      359.094     256.912     357.176
  O      360.171     256.314     356.486
  H      358.862     256.305     358.059
  H      358.212     256.942     356.530
  H      359.355     257.922     357.501
  P      360.802     257.152     355.270
  C      359.475     255.959     353.385
  O      359.701     257.165     354.100
  C      358.308     256.134     352.413
  O      357.061     256.256     353.137
  C      358.410     257.372     351.526
  O      359.242     257.152     350.399
  C      356.957     257.543     351.113
  O      356.629     256.580     350.084
  C      356.217     257.199     352.410
  N      352.820     260.742     353.680
  C      352.736     259.736     352.741
  N      351.593     259.659     352.028
  N      353.695     258.870     352.514
  C      354.787     259.071     353.291
  C      354.988     260.035     354.251
  C      353.915     260.978     354.501
  O      353.924     261.876     355.336
  N      356.217     259.912     354.842
  C      356.774     258.895     354.224
  N      355.949     258.346     353.262
  O      361.939     256.177     354.693
  O      361.371     258.485     355.640
  H      357.355     256.613     349.433
  H      362.697     256.722     354.399
  H      352.056     261.389     353.805
  H      357.765     258.510     354.426
  H      355.256     256.707     352.230
  H      356.748     258.530     350.706
  H      350.833     260.318     352.114
  H      358.730     258.257     352.104
  H      351.496     258.906     351.354
  H      358.240     255.223     351.799
  H      359.237     255.159     354.094
  H      360.387     255.693     352.837
  P      360.020     258.418     349.779
  C      357.923     258.958     348.346
  O      358.875     259.432     349.297
  O      360.618     257.846     348.406
  O      361.084     258.993     350.659
  H      361.382     258.381     348.130
  H      357.226     259.738     348.120
  H      357.400     258.118     348.753
  H      358.430     258.662     347.451

 6  7  8  9  10  11  12  13  14  15  26  29  33  34 0
 6-311+G(2d,p)
 ****
 36  38  39  40  41 0
 6-311+G(2d,p)
 ****
 1  2  3  4  5  16  17  18  19  20  21  22  23  24  25 0
 3-21G
 ****
 27  28  30  31  32  35  37  42  43  44  45  46  47 0
 3-21G
 ****
 48  49 0
 3-21G
 ****


