%nproc=1
%NoSave
%Mem=1900MB
#P OB98/GEN NMR

erre ene a

0 1
  C     -487.644      22.739    -276.329
  O     -488.178      23.086    -275.068
  H     -487.890      23.526    -277.044
  H     -488.078      21.797    -276.680
  H     -486.557      22.646    -276.265
  P     -487.979      22.026    -273.879
  C     -485.976      23.153    -272.668
  O     -486.428      22.074    -273.478
  C     -484.811      22.686    -271.798
  O     -485.190      21.495    -271.068
  C     -483.564      22.302    -272.581
  O     -482.824      23.434    -272.999
  C     -482.829      21.461    -271.554
  O     -482.068      22.277    -270.650
  C     -483.984      20.746    -270.817
  N     -484.116      19.349    -271.217
  C     -483.540      18.420    -270.355
  O     -482.956      18.734    -269.317
  N     -483.628      17.110    -270.744
  C     -484.185      16.657    -271.906
  O     -484.165      15.475    -272.231
  C     -484.789      17.684    -272.772
  C     -484.716      18.965    -272.398
  O     -488.137      20.616    -274.623
  O     -488.928      22.172    -272.738
  H     -489.017      20.242    -274.442
  H     -481.315      22.627    -271.167
  H     -483.211      16.423    -270.137
  H     -485.243      17.357    -273.696
  H     -485.134      19.743    -273.031
  H     -483.816      20.773    -269.731
  H     -482.127      20.775    -272.026
  H     -483.834      21.667    -273.435
  H     -484.583      23.480    -271.071
  H     -486.792      23.490    -272.021
  H     -485.672      23.980    -273.317
  P     -481.584      23.216    -273.990
  C     -482.638      23.506    -276.382
  O     -482.195      22.635    -275.361
  O     -480.867      21.953    -273.316
  O     -480.724      24.421    -274.152
  H     -481.496      21.324    -272.929
  H     -483.007      22.931    -277.206
  H     -481.822      24.116    -276.710
  H     -483.420      24.130    -276.004

 6  7  8  9  10  11  12  13  14  15  16  27  31  32  33  34  35 0
 6-311+G(2d,p)
 ****
 36  37 0
 6-311+G(2d,p)
 ****
 1  2  3  4  5  17  18  19  20  21  22  23  24  25 0
 3-21G
 ****
 26  28  29  30  38  39  40  41  42  43  44  45 0
 3-21G
 ****


