%nproc=1
%NoSave
%Mem=1900MB
#P OB98/GEN NMR

erre ene a

0 1
  C      727.674    -338.002     737.563
  O      728.153    -338.235     738.870
  H      726.627    -337.692     737.622
  H      727.735    -338.914     736.960
  H      728.255    -337.203     737.088
  P      729.673    -338.741     739.003
  C      730.858    -336.467     738.701
  O      730.511    -337.706     738.094
  C      732.141    -336.601     739.519
  O      733.189    -337.110     738.656
  C      732.625    -335.277     740.126
  O      733.159    -335.518     741.426
  C      733.754    -334.863     739.177
  O      734.701    -334.010     739.818
  C      734.313    -336.213     738.738
  N      738.526    -334.575     736.370
  C      738.191    -334.665     737.679
  N      737.050    -335.121     738.220
  C      736.227    -335.581     737.270
  C      736.416    -335.561     735.897
  C      737.639    -335.017     735.446
  N      737.968    -334.907     734.110
  N      735.311    -336.076     735.249
  C      734.470    -336.415     736.205
  N      734.968    -336.121     737.449
  O      729.901    -340.185     738.701
  O      730.048    -338.275     740.485
  H      734.215    -333.293     740.278
  H      729.727    -337.370     740.664
  H      738.956    -334.295     738.373
  H      733.487    -336.855     736.056
  H      735.038    -336.622     739.450
  H      733.338    -334.319     738.331
  H      731.848    -334.526     740.178
  H      731.979    -337.363     740.311
  H      730.045    -336.123     739.351
  H      738.870    -334.535     733.872
  H      737.322    -335.259     733.414
  H      730.997    -335.726     737.902
  P      732.218    -335.245     742.696
  C      732.106    -337.646     743.619
  O      731.384    -336.582     743.007
  O      731.420    -333.980     742.658
  O      733.280    -335.215     743.901
  H      732.991    -334.532     744.550
  H      731.451    -338.477     743.776
  H      732.497    -337.317     744.559
  H      732.912    -337.943     742.981

 6  7  8  9  10  11  12  13  14  15  25  28  32  33  34  35 0
 6-311+G(2d,p)
 ****
 36  39  40 0
 6-311+G(2d,p)
 ****
 1  2  3  4  5  16  17  18  19  20  21  22  23  24 0
 3-21G
 ****
 26  27  29  30  31  37  38  41  42  43  44  45  46  47 0
 3-21G
 ****
 48 0
 3-21G
 ****


