%nproc=1
%NoSave
%Mem=1900MB
#P OB98/GEN NMR

erre ene a

0 1
  C     2019.478     -46.088     352.529
  O     2020.809     -45.911     352.965
  H     2019.034     -46.945     353.045
  H     2019.452     -46.270     351.459
  H     2018.890     -45.191     352.775
  P     2021.671     -44.770     352.261
  C     2022.279     -44.444     349.735
  O     2022.137     -45.359     350.826
  C     2023.515     -44.815     348.925
  O     2023.401     -46.178     348.463
  C     2023.679     -43.963     347.679
  O     2024.263     -42.699     347.936
  C     2024.648     -44.854     346.863
  O     2026.009     -44.642     347.250
  C     2024.170     -46.275     347.244
  N     2023.399     -46.882     346.160
  C     2024.117     -47.759     345.331
  O     2025.300     -48.032     345.502
  N     2023.405     -48.304     344.293
  C     2022.103     -48.033     343.968
  O     2021.551     -48.498     343.003
  C     2021.416     -47.088     344.863
  C     2022.082     -46.554     345.893
  O     2023.021     -44.734     353.115
  O     2021.013     -43.430     352.199
  H     2023.030     -43.935     353.673
  H     2026.078     -44.931     348.187
  H     2023.896     -48.930     343.701
  H     2020.381     -46.831     344.645
  H     2021.593     -45.826     346.567
  H     2025.038     -46.906     347.462
  H     2024.572     -44.645     345.805
  H     2022.743     -43.877     347.125
  H     2024.398     -44.724     349.588
  H     2022.382     -43.429     350.125
  H     2021.376     -44.498     349.124
  P     2023.629     -41.433     347.173
  C     2024.042     -40.374     344.809
  O     2024.487     -41.231     345.852
  O     2024.087     -40.241     348.156
  O     2022.145     -41.516     347.009
  H     2024.939     -40.468     348.634
  H     2024.759     -40.377     344.015
  H     2023.933     -39.379     345.187
  H     2023.099     -40.721     344.440

 6  7  8  9  10  11  12  13  14  15  16  27  31  32  33  34  35 0
 6-311+G(2d,p)
 ****
 36  37 0
 6-311+G(2d,p)
 ****
 1  2  3  4  5  17  18  19  20  21  22  23  24  25 0
 3-21G
 ****
 26  28  29  30  38  39  40  41  42  43  44  45 0
 3-21G
 ****


