%nproc=1
%NoSave
%Mem=1900MB
#P OB98/GEN NMR

erre ene a

0 1
  C     -113.502      82.704    -240.930
  O     -114.421      82.000    -241.771
  P     -115.972      82.384    -241.653
  C     -116.169      83.226    -244.110
  O     -116.298      83.529    -242.724
  C     -116.524      84.453    -244.952
  O     -115.743      85.597    -244.562
  C     -116.241      84.264    -246.433
  O     -117.254      83.484    -247.038
  C     -116.190      85.703    -246.932
  O     -117.485      86.167    -247.349
  C     -115.699      86.485    -245.693
  N     -114.369      87.045    -245.873
  C     -114.306      88.258    -246.565
  O     -115.336      88.779    -247.002
  N     -113.079      88.835    -246.767
  C     -112.009      88.240    -246.338
  N     -110.820      88.858    -246.572
  C     -112.031      86.946    -245.626
  C     -113.233      86.408    -245.433
  O     -116.054      83.154    -240.252
  O     -116.892      81.206    -241.688
  H     -117.788      85.527    -248.025
  H     -116.916      82.992    -239.827
  H     -111.113      86.485    -245.296
  H     -113.345      85.459    -244.919
  H     -116.384      87.311    -245.468
  H     -115.527      85.801    -247.797
  H     -115.260      83.789    -246.569
  H     -117.588      84.684    -244.800
  H     -110.842      89.742    -247.065
  H     -116.820      82.392    -244.374
  H     -109.928      88.481    -246.290
  H     -115.142      82.898    -244.305
  P     -116.977      81.919    -247.228
  C     -118.777      81.303    -245.503
  O     -117.403      81.249    -245.834
  O     -115.378      81.849    -247.151
  O     -117.505      81.276    -248.465
  H     -115.072      80.947    -247.351
  H     -118.959      80.641    -244.654
  H     -119.390      80.972    -246.345
  H     -119.049      82.324    -245.219
  H     -112.509      82.350    -241.112
  H     -113.758      82.538    -239.904
  H     -113.552      83.751    -241.145

 3  4  5  6  7  8  9  10  11  12  13  21  23  27  28  29  30  32 0
 6-311+G(2d,p)
 ****
 34  35 0
 6-311+G(2d,p)
 ****
 1  2  14  15  16  17  18  19  20  22  24  25  26 0
 3-21G
 ****
 31  33  36  37  38  39  40  41  42  43  44  45  46 0
 3-21G
 ****


