%nproc=1
%NoSave
%Mem=1900MB
#P OB98/GEN NMR

erre ene a

0 1
  C     -198.889     204.869    -166.624
  O     -199.225     205.292    -167.947
  P     -199.997     204.219    -168.860
  C     -202.090     205.742    -169.052
  O     -201.087     205.007    -169.736
  C     -202.579     206.913    -169.906
  O     -201.601     207.965    -170.010
  C     -202.917     206.515    -171.339
  O     -204.198     205.906    -171.383
  C     -202.870     207.859    -172.052
  O     -204.114     208.575    -171.915
  C     -201.744     208.596    -171.311
  N     -199.064     210.585    -175.127
  C     -200.406     210.714    -174.826
  N     -201.134     211.504    -175.645
  N     -200.984     210.122    -173.812
  C     -200.135     209.362    -173.080
  C     -198.782     209.182    -173.260
  C     -198.157     209.841    -174.387
  O     -196.968     209.777    -174.681
  N     -198.246     208.392    -172.274
  C     -199.294     207.996    -171.576
  N     -200.455     208.608    -171.984
  O     -200.872     203.398    -167.802
  O     -199.081     203.325    -169.630
  H     -204.334     208.651    -170.969
  H     -200.516     202.492    -167.709
  H     -198.674     211.059    -175.926
  H     -199.267     207.296    -170.757
  H     -202.004     209.647    -171.128
  H     -202.701     207.742    -173.127
  H     -200.755     211.993    -176.440
  H     -202.146     205.848    -171.738
  H     -202.118     211.617    -175.437
  H     -203.470     207.327    -169.417
  H     -201.699     206.117    -168.105
  H     -202.915     205.066    -168.807
  P     -204.299     204.413    -171.956
  C     -206.244     203.601    -170.442
  O     -205.806     203.919    -171.748
  O     -203.463     203.558    -170.885
  O     -203.748     204.237    -173.331
  H     -202.884     202.927    -171.353
  H     -207.320     203.799    -170.373
  H     -205.726     204.194    -169.684
  H     -206.068     202.538    -170.252
  H     -198.382     205.661    -166.114
  H     -198.251     204.011    -166.675
  H     -199.783     204.618    -166.092

 3  4  5  6  7  8  9  10  11  12  23  26  30  31 0
 6-311+G(2d,p)
 ****
 33  35  36  37  38 0
 6-311+G(2d,p)
 ****
 1  2  13  14  15  16  17  18  19  20  21  22  24  25 0
 3-21G
 ****
 27  28  29  32  34  39  40  41  42  43  44  45  46  47  48  49 0
 3-21G
 ****


