%nproc=1
%NoSave
%Mem=1900MB
#P OB98/GEN NMR

erre ene a

0 1
  C       24.340     -60.456      17.611
  O       23.938     -61.790      17.870
  P       22.430     -62.128      18.275
  C       21.946     -64.086      16.594
  O       22.144     -63.657      17.923
  C       21.611     -65.583      16.599
  O       22.823     -66.363      16.642
  C       20.761     -65.963      17.808
  O       19.382     -65.949      17.475
  C       21.284     -67.342      18.160
  O       20.683     -68.340      17.315
  C       22.789     -67.198      17.831
  N       23.667     -66.583      18.845
  C       23.949     -67.273      20.020
  O       23.532     -68.400      20.267
  N       24.723     -66.601      20.933
  C       25.260     -65.358      20.761
  O       25.737     -64.678      21.662
  C       25.154     -64.806      19.408
  C       24.357     -65.420      18.535
  O       21.575     -61.331      17.182
  O       22.040     -61.759      19.668
  H       20.634     -67.964      16.417
  H       21.255     -60.485      17.546
  H       24.815     -67.038      21.844
  H       25.683     -63.889      19.185
  H       24.232     -65.007      17.537
  H       23.228     -68.167      17.570
  H       21.025     -67.614      19.182
  H       20.968     -65.285      18.646
  H       21.083     -65.831      15.669
  H       22.847     -63.898      16.001
  H       21.131     -63.517      16.133
  P       18.417     -64.865      18.149
  C       16.794     -64.755      16.169
  O       16.969     -65.139      17.517
  O       18.889     -63.451      18.080
  O       18.291     -65.377      19.662
  H       18.913     -64.881      20.233
  H       15.842     -65.153      15.810
  H       17.603     -65.151      15.548
  H       16.770     -63.664      16.097
  H       25.380     -60.439      17.358
  H       24.176     -59.858      18.483
  H       23.768     -60.063      16.796

 3  4  5  6  7  8  9  10  11  12  13  23  28  29  30  31  32 0
 6-311+G(2d,p)
 ****
 33  34 0
 6-311+G(2d,p)
 ****
 1  2  14  15  16  17  18  19  20  21  22  24  25  26  27 0
 3-21G
 ****
 35  36  37  38  39  40  41  42  43  44  45 0
 3-21G
 ****


