%nproc=1
%NoSave
%Mem=1900MB
#P OB98/GEN NMR

erre ene a

0 1
  C       61.531      63.192    -153.074
  O       61.995      64.329    -153.772
  H       61.369      62.379    -153.790
  H       60.583      63.412    -152.574
  H       62.274      62.871    -152.340
  P       62.199      65.670    -152.917
  C       59.726      65.863    -152.131
  O       61.087      65.659    -151.762
  C       58.991      66.573    -151.001
  O       58.896      65.699    -149.849
  C       59.694      67.829    -150.493
  O       59.483      68.951    -151.335
  C       59.036      67.996    -149.134
  O       57.789      68.695    -149.228
  C       58.830      66.539    -148.679
  N       59.803      66.142    -147.663
  C       59.264      65.598    -146.498
  O       58.058      65.444    -146.313
  N       60.171      65.265    -145.527
  C       61.517      65.465    -145.585
  O       62.269      65.196    -144.656
  C       62.026      66.065    -146.833
  C       61.155      66.373    -147.802
  O       61.700      66.818    -153.916
  O       63.593      65.910    -152.443
  H       62.468      67.311    -154.259
  H       57.225      68.166    -149.824
  H       59.803      64.864    -144.676
  H       63.091      66.236    -146.911
  H       61.501      66.821    -148.724
  H       57.822      66.411    -148.258
  H       59.675      68.564    -148.461
  H       60.764      67.633    -150.353
  H       57.974      66.813    -151.339
  H       59.247      64.895    -152.314
  H       59.692      66.450    -153.053
  P       60.693      69.997    -151.500
  C       60.053      71.868    -149.764
  O       60.836      70.725    -150.080
  O       60.008      71.088    -152.453
  O       61.938      69.372    -152.038
  H       59.041      71.109    -152.345
  H       60.294      72.204    -148.777
  H       59.015      71.613    -149.811
  H       60.261      72.648    -150.467

 6  7  8  9  10  11  12  13  14  15  16  27  31  32  33  34  35 0
 6-311+G(2d,p)
 ****
 36  37 0
 6-311+G(2d,p)
 ****
 1  2  3  4  5  17  18  19  20  21  22  23  24  25 0
 3-21G
 ****
 26  28  29  30  38  39  40  41  42  43  44  45 0
 3-21G
 ****


