%nproc=1
%NoSave
%Mem=1900MB
#P OB98/GEN NMR

erre ene a

0 1
  C     -429.872    1591.328    -187.181
  O     -430.861    1590.583    -186.482
  P     -430.343    1589.843    -185.135
  C     -431.539    1591.508    -183.552
  O     -430.305    1590.926    -183.952
  C     -431.336    1592.586    -182.492
  O     -430.715    1592.022    -181.286
  C     -430.433    1593.745    -182.926
  O     -430.930    1594.937    -182.324
  C     -429.098    1593.382    -182.349
  O     -428.238    1594.512    -182.270
  C     -429.546    1592.821    -180.996
  N     -425.232    1593.056    -178.361
  C     -425.933    1594.031    -179.004
  N     -425.430    1595.300    -178.883
  N     -427.015    1593.822    -179.697
  C     -427.416    1592.538    -179.707
  C     -426.824    1591.453    -179.081
  C     -425.604    1591.716    -178.339
  O     -424.925    1590.852    -177.775
  N     -427.529    1590.297    -179.295
  C     -428.526    1590.686    -180.082
  N     -428.542    1592.038    -180.317
  O     -428.793    1589.560    -185.450
  O     -431.083    1588.569    -184.820
  H     -427.459    1594.278    -181.723
  H     -428.672    1588.635    -185.715
  H     -424.378    1593.258    -177.856
  H     -429.273    1590.028    -180.488
  H     -429.838    1593.614    -180.298
  H     -428.583    1592.615    -182.924
  H     -424.629    1595.537    -178.337
  H     -430.379    1593.881    -184.032
  H     -425.955    1596.057    -179.306
  H     -432.326    1592.984    -182.208
  H     -432.192    1590.713    -183.153
  H     -432.064    1591.894    -184.438
  P     -431.605    1596.040    -183.243
  C     -434.045    1595.590    -182.462
  O     -433.116    1595.562    -183.525
  O     -430.862    1595.823    -184.648
  O     -431.454    1597.430    -182.751
  H     -430.706    1596.712    -185.077
  H     -435.041    1595.683    -182.868
  H     -433.841    1596.401    -181.767
  H     -433.993    1594.621    -181.937
  H     -430.310    1591.775    -188.049
  H     -429.078    1590.676    -187.478
  H     -429.485    1592.094    -186.542

 3  4  5  6  7  8  9  10  11  12  23  26  30  31 0
 6-311+G(2d,p)
 ****
 33  35  36  37  38 0
 6-311+G(2d,p)
 ****
 1  2  13  14  15  16  17  18  19  20  21  22  24  25 0
 3-21G
 ****
 27  28  29  32  34  39  40  41  42  43  44  45  46  47  48  49 0
 3-21G
 ****


