%nproc=1
%NoSave
%Mem=1900MB
#P OB98/GEN NMR

erre ene a

0 1
  C     -713.168    -532.756     -97.240
  O     -712.739    -531.924     -96.158
  P     -713.341    -530.437     -96.126
  C     -711.104    -529.214     -95.627
  O     -712.408    -529.547     -95.170
  C     -710.283    -528.590     -94.497
  O     -710.987    -527.531     -93.819
  C     -709.883    -529.583     -93.416
  O     -708.772    -530.348     -93.850
  C     -709.558    -528.659     -92.249
  O     -708.210    -528.154     -92.335
  C     -710.571    -527.518     -92.429
  N     -712.218    -527.903     -87.650
  C     -710.937    -528.011     -88.157
  N     -709.955    -528.227     -87.263
  N     -710.649    -527.911     -89.427
  C     -711.732    -527.694     -90.211
  C     -713.046    -527.547     -89.827
  C     -713.350    -527.664     -88.413
  O     -714.464    -527.558     -87.918
  N     -713.859    -527.273     -90.896
  C     -713.054    -527.391     -91.941
  N     -711.743    -527.579     -91.574
  O     -714.700    -530.607     -95.300
  O     -713.591    -529.868     -97.482
  H     -708.071    -527.771     -93.221
  H     -715.466    -530.493     -95.894
  H     -712.384    -528.001     -86.665
  H     -713.362    -527.320     -92.972
  H     -710.109    -526.540     -92.246
  H     -709.634    -529.178     -91.287
  H     -710.103    -528.311     -86.265
  H     -710.736    -530.225     -93.162
  H     -709.006    -528.300     -87.607
  H     -709.381    -528.152     -94.951
  H     -711.170    -528.518     -96.463
  H     -710.623    -530.121     -96.005
  P     -708.553    -531.795     -93.197
  C     -705.973    -531.891     -92.962
  O     -707.121    -532.326     -93.665
  O     -709.588    -532.713     -94.001
  O     -708.811    -531.856     -91.723
  H     -710.062    -533.295     -93.378
  H     -705.209    -532.675     -93.017
  H     -706.190    -531.685     -91.911
  H     -705.579    -530.984     -93.431
  H     -712.704    -533.717     -97.157
  H     -712.889    -532.305     -98.169
  H     -714.231    -532.869     -97.203

 3  4  5  6  7  8  9  10  11  12  23  26  30  31 0
 6-311+G(2d,p)
 ****
 33  35  36  37  38 0
 6-311+G(2d,p)
 ****
 1  2  13  14  15  16  17  18  19  20  21  22  24  25 0
 3-21G
 ****
 27  28  29  32  34  39  40  41  42  43  44  45  46  47  48  49 0
 3-21G
 ****


