%nproc=1
%NoSave
%Mem=1900MB
#P OB98/GEN NMR

erre ene a

0 1
  C      145.172     -69.575    -204.823
  O      144.291     -69.886    -205.884
  H      146.167     -69.391    -205.238
  H      145.237     -70.409    -204.118
  H      144.838     -68.673    -204.303
  P      142.779     -70.278    -205.531
  C      141.654     -72.460    -204.713
  O      142.845     -71.679    -204.757
  C      141.773     -73.564    -203.666
  O      142.040     -72.995    -202.368
  C      140.511     -74.404    -203.500
  O      140.368     -75.307    -204.578
  C      140.777     -75.040    -202.146
  O      141.696     -76.137    -202.263
  C      141.429     -73.862    -201.380
  N      140.490     -73.116    -200.549
  C      140.280     -73.618    -199.259
  O      140.858     -74.638    -198.888
  N      139.403     -72.954    -198.435
  C      138.826     -71.868    -198.842
  N      137.972     -71.256    -197.975
  C      139.048     -71.288    -200.180
  C      139.874     -71.962    -200.977
  O      141.805     -70.244    -206.667
  O      142.373     -69.246    -204.376
  H      142.525     -75.760    -202.615
  H      141.927     -68.465    -204.755
  H      138.552     -70.372    -200.472
  H      140.092     -71.603    -201.978
  H      142.240     -74.227    -200.736
  H      139.870     -75.431    -201.685
  H      139.632     -73.756    -203.410
  H      142.631     -74.193    -203.934
  H      137.868     -71.682    -197.060
  H      141.521     -72.898    -205.708
  H      137.598     -70.330    -198.119
  H      140.786     -71.828    -204.497
  P      138.942     -75.927    -204.969
  C      137.420     -77.713    -203.918
  O      138.485     -76.801    -203.701
  O      138.898     -76.644    -206.274
  O      137.952     -74.672    -204.895
  H      138.055     -74.104    -205.701
  H      137.206     -78.234    -203.008
  H      137.701     -78.416    -204.674
  H      136.550     -77.177    -204.235

 6  7  8  9  10  11  12  13  14  15  16  26  30  31  32  33  35 0
 6-311+G(2d,p)
 ****
 37  38 0
 6-311+G(2d,p)
 ****
 1  2  3  4  5  17  18  19  20  21  22  23  24  25 0
 3-21G
 ****
 27  28  29  34  36  39  40  41  42  43  44  45  46 0
 3-21G
 ****


