%nproc=1
%NoSave
%Mem=1900MB
#P OB98/GEN NMR

erre ene a

0 1
  C      155.744     -55.262     -78.637
  O      156.953     -55.452     -79.345
  H      155.950     -54.658     -77.749
  H      155.329     -56.222     -78.317
  H      155.018     -54.731     -79.259
  P      156.935     -56.377     -80.651
  C      157.244     -58.621     -79.402
  O      156.380     -57.806     -80.186
  C      157.265     -60.051     -79.937
  O      156.021     -60.717     -79.637
  C      157.433     -60.149     -81.448
  O      158.770     -59.885     -81.819
  C      156.954     -61.571     -81.691
  O      157.973     -62.523     -81.347
  C      155.765     -61.661     -80.702
  N      154.470     -61.404     -81.323
  C      153.948     -62.438     -82.109
  O      154.581     -63.484     -82.258
  N      152.733     -62.246     -82.719
  C      152.076     -61.146     -82.527
  N      150.876     -61.021     -83.155
  C      152.575     -60.046     -81.679
  C      153.770     -60.236     -81.124
  O      158.209     -56.434     -81.438
  O      155.730     -55.787     -81.524
  H      158.755     -62.289     -81.885
  H      156.062     -55.135     -82.170
  H      151.989     -59.150     -81.539
  H      154.210     -59.475     -80.484
  H      155.728     -62.656     -80.239
  H      156.690     -61.747     -82.733
  H      156.742     -59.462     -81.952
  H      158.064     -60.595     -79.416
  H      150.567     -61.812     -83.711
  H      156.857     -58.608     -78.378
  H      150.213     -60.288     -82.952
  H      158.259     -58.209     -79.391
  P      159.126     -58.982     -83.095
  C      159.918     -60.964     -84.529
  O      158.947     -59.941     -84.371
  O      160.433     -58.269     -83.025
  O      157.869     -58.000     -83.224
  H      157.927     -57.277     -82.550
  H      159.696     -61.534     -85.407
  H      159.902     -61.606     -83.673
  H      160.888     -60.523     -84.626

 6  7  8  9  10  11  12  13  14  15  16  26  30  31  32  33  35 0
 6-311+G(2d,p)
 ****
 37  38 0
 6-311+G(2d,p)
 ****
 1  2  3  4  5  17  18  19  20  21  22  23  24  25 0
 3-21G
 ****
 27  28  29  34  36  39  40  41  42  43  44  45  46 0
 3-21G
 ****


