%nproc=1
%NoSave
%Mem=1900MB
#P OB98/GEN NMR

erre ene a

0 1
  C      254.297     512.238      94.340
  O      253.731     510.942      94.353
  H      254.428     512.570      95.372
  H      253.632     512.941      93.827
  H      255.274     512.225      93.849
  P      253.397     510.241      92.952
  C      255.878     509.623      92.573
  O      254.743     510.323      92.080
  C      257.042     509.752      91.597
  O      258.251     509.234      92.187
  C      256.848     508.993      90.283
  O      256.045     509.745      89.389
  C      258.289     508.874      89.814
  O      258.724     510.136      89.271
  C      259.028     508.590      91.136
  N      262.237     505.000      92.739
  C      262.481     506.316      92.394
  N      263.766     506.723      92.455
  N      261.550     507.152      92.010
  C      260.323     506.587      91.930
  C      259.960     505.293      92.227
  C      260.989     504.396      92.714
  O      260.810     503.231      93.055
  N      258.642     505.060      91.934
  C      258.195     506.226      91.509
  N      259.181     507.186      91.478
  O      252.179     510.741      92.239
  O      253.289     508.684      93.306
  H      258.023     510.448      88.673
  H      252.370     508.433      93.512
  H      262.996     504.403      93.019
  H      257.172     506.435      91.214
  H      260.030     509.030      91.150
  H      258.420     508.124      89.036
  H      264.541     506.090      92.596
  H      256.446     507.990      90.457
  H      263.971     507.668      92.147
  H      257.210     510.819      91.412
  H      255.591     508.574      92.691
  H      256.174     510.016      93.553
  P      255.187     509.033      88.233
  C      253.037     509.682      89.513
  O      253.791     508.645      88.914
  O      255.880     507.906      87.543
  O      254.762     510.228      87.263
  H      255.452     510.442      86.587
  H      252.136     509.276      89.924
  H      252.793     510.418      88.775
  H      253.612     510.136      90.293

 6  7  8  9  10  11  12  13  14  15  26  29  33  34 0
 6-311+G(2d,p)
 ****
 36  38  39  40  41 0
 6-311+G(2d,p)
 ****
 1  2  3  4  5  16  17  18  19  20  21  22  23  24  25 0
 3-21G
 ****
 27  28  30  31  32  35  37  42  43  44  45  46  47 0
 3-21G
 ****
 48  49 0
 3-21G
 ****


