%nproc=1
%NoSave
%Mem=1900MB
#P OB98/GEN NMR

erre ene a

0 1
  C       -1.586    -238.203    -281.520
  O       -2.952    -238.437    -281.803
  H       -1.221    -239.004    -280.868
  H       -1.456    -237.246    -281.009
  H       -1.006    -238.212    -282.447
  P       -3.756    -237.339    -282.647
  C       -4.708    -236.125    -280.572
  O       -3.876    -236.036    -281.717
  C       -5.316    -234.754    -280.232
  O       -4.252    -233.870    -279.771
  C       -5.993    -234.059    -281.431
  O       -7.052    -233.249    -280.914
  C       -4.863    -233.197    -281.956
  O       -5.332    -232.224    -282.860
  C       -4.249    -232.714    -280.637
  N       -2.911    -232.169    -280.812
  C       -2.837    -230.867    -281.304
  O       -3.865    -230.243    -281.586
  N       -1.603    -230.303    -281.503
  C       -0.532    -231.006    -281.288
  N        0.658    -230.401    -281.521
  C       -0.567    -232.414    -280.822
  C       -1.780    -232.921    -280.597
  O       -5.044    -237.797    -283.247
  O       -2.718    -236.882    -283.774
  H       -4.580    -231.732    -283.264
  H       -2.965    -237.277    -284.630
  H        0.354    -232.960    -280.674
  H       -1.910    -233.942    -280.254
  H       -4.884    -231.948    -280.173
  H       -4.138    -233.808    -282.507
  H       -6.384    -234.772    -282.169
  H       -6.019    -234.876    -279.400
  H        0.637    -229.442    -281.853
  H       -4.090    -236.470    -279.737
  H        1.559    -230.852    -281.406
  H       -5.511    -236.848    -280.743
  P       -8.602    -233.608    -281.103
  C       -9.292    -232.125    -283.095
  O       -9.008    -233.449    -282.645
  O       -9.516    -232.899    -280.162
  O       -8.686    -235.195    -280.862
  H       -9.563    -235.420    -280.477
  H       -9.549    -232.149    -284.134
  H       -8.429    -231.508    -282.955
  H      -10.111    -231.726    -282.534

 6  7  8  9  10  11  12  13  14  15  16  26  30  31  32  33  35 0
 6-311+G(2d,p)
 ****
 37  38 0
 6-311+G(2d,p)
 ****
 1  2  3  4  5  17  18  19  20  21  22  23  24  25 0
 3-21G
 ****
 27  28  29  34  36  39  40  41  42  43  44  45  46 0
 3-21G
 ****


