%nproc=1
%NoSave
%Mem=1900MB
#P OB98/GEN NMR

erre ene a

0 1
  C     1279.405    -392.205     103.154
  O     1280.042    -392.801     102.039
  H     1278.761    -392.953     103.628
  H     1278.797    -391.364     102.827
  H     1280.162    -391.882     103.880
  P     1281.019    -391.856     101.179
  C     1280.298    -389.600     100.137
  O     1280.016    -390.969     100.279
  C     1279.206    -388.894      99.334
  O     1277.911    -389.266      99.824
  C     1279.268    -387.384      99.353
  O     1280.204    -386.897      98.406
  C     1277.830    -387.019      98.965
  O     1277.706    -387.118      97.527
  C     1277.016    -388.130      99.630
  N     1273.041    -385.899     102.018
  C     1273.413    -385.910     100.712
  N     1274.513    -386.476     100.145
  C     1275.264    -387.083     101.095
  C     1275.004    -387.162     102.456
  C     1273.840    -386.535     102.915
  N     1273.463    -386.503     104.241
  N     1276.014    -387.835     103.125
  C     1276.817    -388.250     102.158
  N     1276.432    -387.792     100.923
  O     1282.116    -392.553     100.454
  O     1281.490    -390.810     102.291
  H     1278.503    -386.672      97.157
  H     1280.745    -390.562     102.863
  H     1272.741    -385.426     100.014
  H     1277.676    -388.906     102.291
  H     1276.192    -388.485      98.997
  H     1277.562    -386.003      99.254
  H     1279.464    -386.989     100.379
  H     1279.277    -389.269      98.301
  H     1281.276    -389.439      99.664
  H     1272.711    -385.883     104.497
  H     1274.136    -386.852     104.934
  H     1280.343    -389.156     101.162
  P     1281.045    -385.543      98.668
  C     1280.223    -383.269      99.538
  O     1279.911    -384.385      98.719
  O     1282.164    -385.327      97.705
  O     1281.514    -385.664     100.195
  H     1282.234    -385.011     100.345
  H     1279.417    -382.566      99.505
  H     1281.118    -382.803      99.181
  H     1280.369    -383.596     100.546

 6  7  8  9  10  11  12  13  14  15  25  28  32  33  34  35 0
 6-311+G(2d,p)
 ****
 36  39  40 0
 6-311+G(2d,p)
 ****
 1  2  3  4  5  16  17  18  19  20  21  22  23  24 0
 3-21G
 ****
 26  27  29  30  31  37  38  41  42  43  44  45  46  47 0
 3-21G
 ****
 48 0
 3-21G
 ****


