%nproc=1
%NoSave
%Mem=1900MB
#P OB98/GEN NMR

erre ene a

0 1
  C      648.615    -491.481    -136.087
  O      647.806    -491.698    -137.243
  P      648.279    -492.800    -138.313
  C      648.059    -495.367    -138.127
  O      647.373    -494.113    -138.119
  C      647.209    -496.446    -138.824
  O      645.964    -496.625    -138.083
  C      646.793    -496.102    -140.262
  O      647.656    -496.485    -141.320
  C      645.523    -496.957    -140.418
  O      645.885    -498.307    -140.764
  C      644.906    -496.939    -139.015
  N      639.835    -496.279    -139.268
  C      640.618    -497.367    -139.458
  N      641.958    -497.457    -139.367
  C      642.499    -496.268    -139.044
  C      641.836    -495.075    -138.824
  C      640.433    -495.101    -138.953
  N      639.634    -493.996    -138.772
  N      642.719    -494.070    -138.524
  C      643.911    -494.645    -138.572
  N      643.830    -495.976    -138.872
  O      649.745    -493.044    -138.389
  O      647.724    -492.203    -139.686
  H      645.073    -498.839    -140.681
  H      648.366    -492.385    -140.393
  H      640.091    -498.285    -139.699
  H      644.854    -494.134    -138.410
  H      644.509    -497.914    -138.728
  H      644.864    -496.589    -141.202
  H      646.530    -495.045    -140.350
  H      647.757    -497.400    -138.811
  H      648.261    -495.670    -137.099
  H      638.650    -494.094    -138.930
  H      640.073    -493.098    -138.601
  H      649.023    -495.216    -138.613
  P      648.758    -495.459    -141.900
  C      651.309    -495.112    -141.408
  O      650.138    -495.867    -141.186
  O      648.399    -494.009    -141.782
  O      648.954    -495.966    -143.400
  H      649.389    -496.838    -143.477
  H      652.064    -495.418    -140.680
  H      651.101    -494.036    -141.265
  H      651.689    -495.286    -142.420
  H      648.170    -490.723    -135.477
  H      649.592    -491.167    -136.389
  H      648.690    -492.390    -135.528

 3  4  5  6  7  8  9  10  11  12  22  25  29  30  31  32 0
 6-311+G(2d,p)
 ****
 33  36  37 0
 6-311+G(2d,p)
 ****
 1  2  13  14  15  16  17  18  19  20  21  23  24  26 0
 3-21G
 ****
 27  28  34  35  38  39  40  41  42  43  44  45  46  47  48 0
 3-21G
 ****


