%nproc=1
%NoSave
%Mem=1900MB
#P OB98/GEN NMR

erre ene a

0 1
  C     -898.830     727.993    -219.312
  O     -897.800     728.638    -218.573
  H     -899.160     727.116    -218.758
  H     -898.440     727.668    -220.283
  H     -899.680     728.667    -219.463
  P     -897.310     730.070    -219.122
  C     -896.100     730.115    -216.826
  O     -896.070     730.504    -218.197
  C     -895.240     731.081    -215.991
  O     -895.460     732.441    -216.422
  C     -895.550     731.045    -214.502
  O     -894.880     729.979    -213.837
  C     -894.980     732.400    -214.075
  O     -893.540     732.308    -213.989
  C     -895.390     733.295    -215.263
  N     -897.980     736.648    -212.468
  C     -896.670     736.202    -212.342
  N     -895.950     736.723    -211.326
  N     -896.120     735.334    -213.145
  C     -896.960     734.885    -214.117
  C     -898.270     735.254    -214.339
  C     -898.870     736.227    -213.447
  O     -900.000     736.673    -213.534
  N     -898.800     734.602    -215.415
  C     -897.810     733.820    -215.842
  N     -896.680     733.955    -215.064
  O     -898.480     731.061    -218.657
  O     -897.080     730.155    -220.594
  H     -893.220     733.175    -213.677
  H     -898.610     731.745    -219.340
  H     -898.360     737.310    -211.814
  H     -897.870     733.157    -216.683
  H     -894.660     734.082    -215.452
  H     -895.340     732.712    -213.093
  H     -896.330     737.357    -210.640
  H     -896.630     731.038    -214.308
  H     -894.980     736.442    -211.223
  H     -894.190     730.832    -216.178
  H     -895.690     729.105    -216.724
  H     -897.140     730.127    -216.465
  P     -895.750     729.059    -212.835
  C     -893.830     727.325    -212.983
  O     -894.700     728.061    -212.149
  O     -896.560     728.115    -213.828
  O     -896.640     729.812    -211.915
  H     -897.370     727.778    -213.404
  H     -893.195     726.709    -212.381
  H     -893.231     728.000    -213.558
  H     -894.405     726.708    -213.642

 6  7  8  9  10  11  12  13  14  15  26  29  33  34 0
 6-311+G(2d,p)
 ****
 36  38  39  40  41 0
 6-311+G(2d,p)
 ****
 1  2  3  4  5  16  17  18  19  20  21  22  23  24  25 0
 3-21G
 ****
 27  28  30  31  32  35  37  42  43  44  45  46  47 0
 3-21G
 ****
 48  49 0
 3-21G
 ****


