%nproc=1
%NoSave
%Mem=1900MB
#P OB98/GEN NMR

erre ene a

0 1
  C     1534.909    -613.741     -99.245
  O     1534.745    -612.665    -100.152
  P     1536.020    -611.986    -100.862
  C     1536.341    -610.498    -102.965
  O     1535.441    -611.301    -102.202
  C     1535.983    -610.591    -104.442
  O     1536.454    -611.854    -104.960
  C     1534.484    -610.531    -104.740
  O     1533.999    -609.218    -104.654
  C     1534.453    -611.168    -106.139
  O     1534.827    -610.187    -107.125
  C     1535.567    -612.262    -106.049
  N     1535.002    -613.579    -105.811
  C     1534.716    -614.355    -106.935
  O     1534.936    -613.911    -108.089
  N     1534.233    -615.622    -106.784
  C     1534.047    -616.098    -105.581
  N     1533.621    -617.384    -105.476
  C     1534.286    -615.291    -104.358
  C     1534.771    -614.076    -104.534
  O     1537.170    -612.938    -101.096
  O     1536.388    -610.732     -99.958
  H     1534.807    -610.633    -108.007
  H     1537.018    -610.942     -99.228
  H     1534.087    -615.711    -103.379
  H     1534.984    -613.441    -103.693
  H     1536.177    -612.258    -106.959
  H     1533.482    -611.565    -106.436
  H     1533.928    -611.189    -104.050
  H     1536.512    -609.795    -104.983
  H     1533.663    -617.941    -106.339
  H     1537.353    -610.847    -102.821
  H     1533.721    -617.890    -104.597
  H     1536.263    -609.457    -102.604
  P     1532.414    -609.039    -104.623
  C     1530.892    -607.186    -103.591
  O     1532.103    -607.920    -103.507
  O     1531.873    -610.407    -103.998
  O     1531.808    -608.755    -105.978
  H     1531.541    -610.995    -104.710
  H     1530.739    -606.680    -102.647
  H     1530.042    -607.843    -103.767
  H     1530.978    -606.427    -104.391
  H     1533.951    -614.051     -98.883
  H     1535.516    -613.425     -98.422
  H     1535.384    -614.559     -99.745

 3  4  5  6  7  8  9  10  11  12  13  23  27  28  29  30  32 0
 6-311+G(2d,p)
 ****
 34  35 0
 6-311+G(2d,p)
 ****
 1  2  14  15  16  17  18  19  20  21  22  24  25  26 0
 3-21G
 ****
 31  33  36  37  38  39  40  41  42  43  44  45  46 0
 3-21G
 ****


