%nproc=1
%NoSave
%Mem=1900MB
#P OB98/GEN NMR

erre ene a

0 1
  C      392.925    -722.043    -447.898
  O      393.206    -722.496    -446.585
  H      392.476    -721.051    -447.832
  H      392.220    -722.713    -448.391
  H      393.846    -721.974    -448.481
  P      393.871    -723.943    -446.408
  C      395.744    -724.867    -444.888
  O      395.192    -723.721    -445.526
  C      396.637    -724.433    -443.729
  O      397.978    -724.179    -444.194
  C      396.177    -723.154    -443.032
  O      395.134    -723.439    -442.113
  C      397.468    -722.726    -442.359
  O      397.701    -723.535    -441.190
  C      398.507    -723.053    -443.444
  N      399.826    -718.174    -443.904
  C      399.600    -718.934    -442.766
  N      399.687    -718.279    -441.589
  N      399.283    -720.198    -442.793
  C      399.155    -720.702    -444.042
  C      399.342    -720.044    -445.244
  C      399.739    -718.659    -445.207
  O      399.974    -717.958    -446.193
  N      399.060    -720.863    -446.307
  C      398.739    -722.014    -445.753
  N      398.772    -721.964    -444.381
  O      394.115    -724.720    -447.671
  O      392.884    -724.709    -445.412
  H      397.006    -723.302    -440.552
  H      392.210    -725.218    -445.906
  H      400.047    -717.195    -443.828
  H      398.485    -722.922    -446.303
  H      399.473    -723.355    -443.025
  H      397.457    -721.683    -442.038
  H      399.642    -717.268    -441.530
  H      395.887    -722.382    -443.748
  H      399.481    -718.801    -440.753
  H      396.696    -725.270    -443.020
  H      396.328    -725.413    -445.633
  H      394.949    -725.512    -444.515
  P      393.830    -722.508    -442.022
  C      391.622    -722.627    -440.687
  O      392.833    -723.283    -441.027
  O      393.235    -722.135    -443.338
  O      394.287    -721.261    -441.139
  H      394.683    -720.520    -441.668
  H      391.055    -723.246    -440.024
  H      391.055    -722.442    -441.575
  H      391.843    -721.697    -440.205

 6  7  8  9  10  11  12  13  14  15  26  29  33  34 0
 6-311+G(2d,p)
 ****
 36  38  39  40  41 0
 6-311+G(2d,p)
 ****
 1  2  3  4  5  16  17  18  19  20  21  22  23  24  25 0
 3-21G
 ****
 27  28  30  31  32  35  37  42  43  44  45  46  47 0
 3-21G
 ****
 48  49 0
 3-21G
 ****


