%nproc=1
%NoSave
%Mem=1900MB
#P OB98/GEN NMR

erre ene a

0 1
  C      988.994     890.150      24.416
  O      990.162     889.720      23.692
  P      990.240     889.749      22.095
  C      992.287     888.201      22.374
  O      991.698     889.282      21.641
  C      993.769     888.015      22.025
  O      993.970     887.990      20.601
  C      994.692     889.125      22.536
  O      994.966     888.937      23.913
  C      995.894     888.956      21.629
  O      996.747     887.876      22.073
  C      995.230     888.570      20.285
  N      997.575     891.659      16.910
  C      998.006     890.588      17.624
  N      997.322     889.822      18.508
  C      996.057     890.247      18.610
  C      995.464     891.323      17.971
  C      996.280     892.055      17.085
  N      995.831     893.152      16.377
  N      994.136     891.476      18.350
  C      993.925     890.471      19.192
  N      995.058     889.720      19.401
  O      989.782     891.034      21.474
  O      989.295     888.522      21.617
  H      996.208     887.052      22.056
  H      988.937     888.715      20.743
  H      999.049     890.310      17.462
  H      992.990     890.286      19.690
  H      995.814     887.832      19.726
  H      996.527     889.858      21.567
  H      994.241     890.092      22.373
  H      994.096     887.040      22.422
  H      991.725     887.291      22.140
  H      996.492     893.646      15.794
  H      994.886     893.490      16.539
  H      992.189     888.415      23.452
  P      994.707     890.119      24.958
  C      996.844     889.686      26.347
  O      995.407     889.701      26.334
  O      993.302     890.581      25.077
  O      995.660     891.304      24.429
  H      995.261     892.170      24.656
  H      997.189     888.750      25.880
  H      997.174     889.710      27.387
  H      997.239     890.542      25.811
  H      989.166     890.043      25.467
  H      988.156     889.550      24.129
  H      988.792     891.176      24.190

 3  4  5  6  7  8  9  10  11  12  22  25  29  30  31  32 0
 6-311+G(2d,p)
 ****
 33  36  37 0
 6-311+G(2d,p)
 ****
 1  2  13  14  15  16  17  18  19  20  21  23  24  26 0
 3-21G
 ****
 27  28  34  35  38  39  40  41  42  43  44  45  46  47  48 0
 3-21G
 ****


