%nproc=1
%NoSave
%Mem=1900MB
#P OB98/GEN NMR

erre ene a

0 1
  C     -401.491     708.210     237.512
  O     -400.668     707.072     237.740
  P     -401.367     705.687     238.148
  C     -402.283     704.691     235.870
  O     -401.329     704.676     236.907
  C     -402.183     703.378     235.074
  O     -403.396     703.164     234.305
  C     -401.024     703.358     234.087
  O     -399.814     702.915     234.697
  C     -401.536     702.407     233.015
  O     -401.414     701.049     233.454
  C     -403.021     702.820     232.944
  N     -403.392     703.958     232.057
  C     -404.303     703.750     231.015
  O     -404.825     702.669     230.763
  N     -404.597     704.848     230.259
  C     -404.234     706.141     230.519
  O     -404.579     707.094     229.837
  C     -403.401     706.322     231.718
  C     -403.020     705.240     232.409
  O     -402.915     706.069     238.278
  O     -400.837     705.067     239.395
  H     -401.740     701.005     234.365
  H     -403.215     705.958     239.196
  H     -405.192     704.704     229.449
  H     -403.124     707.336     231.984
  H     -402.394     705.370     233.293
  H     -403.645     701.969     232.637
  H     -400.952     702.493     232.107
  H     -400.889     704.341     233.632
  H     -402.087     702.548     235.787
  H     -402.127     705.542     235.206
  H     -403.289     704.800     236.291
  P     -398.416     703.534     234.229
  C     -398.059     705.695     235.569
  O     -397.825     704.302     235.507
  O     -398.444     704.325     232.948
  O     -397.465     702.247     234.122
  H     -397.427     701.915     233.193
  H     -397.765     706.070     236.547
  H     -399.128     705.907     235.419
  H     -397.475     706.203     234.795
  H     -400.878     709.047     237.251
  H     -402.042     708.435     238.401
  H     -402.172     708.003     236.713

 3  4  5  6  7  8  9  10  11  12  13  23  28  29  30  31  32 0
 6-311+G(2d,p)
 ****
 33  34 0
 6-311+G(2d,p)
 ****
 1  2  14  15  16  17  18  19  20  21  22  24  25  26  27 0
 3-21G
 ****
 35  36  37  38  39  40  41  42  43  44  45 0
 3-21G
 ****


