%nproc=1
%NoSave
%Mem=1900MB
#P OB98/GEN NMR

erre ene a

0 1
  C      -52.586     167.747      11.430
  O      -53.044     167.596      12.759
  H      -53.016     168.648      10.983
  H      -51.499     167.846      11.443
  H      -52.855     166.870      10.834
  P      -54.625     167.405      12.955
  C      -54.217     164.844      13.020
  O      -54.959     165.916      12.460
  C      -55.094     164.037      13.971
  O      -55.426     164.825      15.132
  C      -56.429     163.590      13.383
  O      -56.286     162.442      12.562
  C      -57.206     163.275      14.652
  O      -56.813     161.984      15.154
  C      -56.724     164.380      15.605
  N      -60.642     166.507      18.113
  C      -59.920     165.391      18.348
  N      -58.877     164.900      17.647
  C      -58.585     165.703      16.612
  C      -59.215     166.883      16.256
  C      -60.297     167.284      17.055
  N      -61.073     168.395      16.764
  N      -58.642     167.420      15.119
  C      -57.696     166.567      14.787
  N      -57.619     165.518      15.661
  O      -55.240     168.338      11.805
  O      -55.147     167.772      14.303
  H      -57.243     161.878      16.023
  H      -55.485     169.200      12.189
  H      -60.222     164.811      19.215
  H      -57.050     166.665      13.924
  H      -56.586     164.012      16.627
  H      -58.288     163.246      14.498
  H      -56.928     164.409      12.852
  H      -54.512     163.172      14.314
  H      -53.359     165.243      13.571
  H      -62.033     168.314      17.086
  H      -60.934     168.768      15.832
  H      -53.853     164.208      12.207
  P      -57.153     162.377      11.213
  C      -55.943     163.110       9.048
  O      -56.582     163.526      10.248
  O      -58.576     162.942      11.678
  O      -57.281     161.024      10.604
  H      -59.273     162.289      11.473
  H      -55.613     163.970       8.503
  H      -56.634     162.553       8.450
  H      -55.101     162.494       9.287

 6  7  8  9  10  11  12  13  14  15  25  28  32  33  34  35 0
 6-311+G(2d,p)
 ****
 36  39  40 0
 6-311+G(2d,p)
 ****
 1  2  3  4  5  16  17  18  19  20  21  22  23  24 0
 3-21G
 ****
 26  27  29  30  31  37  38  41  42  43  44  45  46  47  48 0
 3-21G
 ****


