%nproc=1
%NoSave
%Mem=1900MB
#P OB98/GEN NMR

erre ene a

0 1
  C      571.569     783.557    -891.560
  O      572.155     784.307    -892.620
  P      572.045     783.649    -894.090
  C      571.961     785.933    -895.330
  O      572.635     784.695    -895.150
  C      572.948     787.056    -895.640
  O      573.722     787.453    -894.490
  C      573.968     786.683    -896.710
  O      573.379     786.795    -898.000
  C      575.074     787.723    -896.450
  O      574.783     788.963    -897.120
  C      575.013     787.871    -894.940
  N      580.007     787.327    -894.180
  C      579.344     788.055    -895.140
  N      580.109     788.771    -895.960
  N      578.028     788.100    -895.220
  C      577.409     787.338    -894.300
  C      577.955     786.583    -893.290
  C      579.401     786.535    -893.190
  O      580.042     785.909    -892.360
  N      576.981     785.980    -892.520
  C      575.867     786.285    -893.140
  N      576.043     787.160    -894.190
  O      570.456     783.667    -894.380
  O      572.587     782.267    -894.180
  H      574.785     788.811    -898.080
  H      570.105     782.757    -894.360
  H      581.013     787.308    -894.140
  H      574.881     785.933    -892.840
  H      575.117     788.937    -894.630
  H      576.024     787.379    -896.850
  H      581.113     788.785    -895.950
  H      574.340     785.672    -896.530
  H      579.635     789.339    -896.680
  H      572.357     787.922    -895.980
  H      571.386     786.189    -894.430
  H      571.232     785.810    -896.140
  P      573.187     785.466    -898.850
  C      570.658     785.480    -899.460
  O      571.986     785.705    -899.890
  O      572.550     784.427    -897.780
  O      574.436     784.904    -899.440
  H      572.997     783.557    -897.870
  H      569.998     786.165    -900.000
  H      570.551     785.698    -898.380
  H      570.384     784.446    -899.680
  H      571.699     784.082    -890.637
  H      572.043     782.600    -891.496
  H      570.525     783.425    -891.751

 3  4  5  6  7  8  9  10  11  12  23  26  30  31 0
 6-311+G(2d,p)
 ****
 33  35  36  37  38 0
 6-311+G(2d,p)
 ****
 1  2  13  14  15  16  17  18  19  20  21  22  24  25 0
 3-21G
 ****
 27  28  29  32  34  39  40  41  42  43  44  45  46  47  48  49 0
 3-21G
 ****


