%nproc=1
%NoSave
%Mem=1900MB
#P OB98/GEN NMR

erre ene a

0 1
  C     -336.351      73.079     -62.270
  O     -335.683      71.836     -62.178
  H     -337.124      73.010     -63.041
  H     -335.645      73.865     -62.552
  H     -336.824      73.331     -61.316
  P     -334.580      71.685     -61.023
  C     -336.199      71.060     -59.076
  O     -335.176      70.631     -59.965
  C     -337.097      69.873     -58.710
  O     -338.089      69.704     -59.762
  C     -336.331      68.552     -58.577
  O     -336.909      67.778     -57.520
  C     -336.587      67.867     -59.914
  O     -336.446      66.455     -59.867
  C     -338.021      68.330     -60.206
  N     -338.362      68.234     -61.624
  C     -338.813      67.002     -62.092
  O     -339.023      66.014     -61.381
  N     -339.039      66.924     -63.443
  C     -338.834      67.927     -64.356
  O     -339.032      67.787     -65.555
  C     -338.343      69.199     -63.799
  C     -338.129      69.291     -62.486
  O     -334.673      73.080     -60.239
  O     -333.196      71.377     -61.484
  H     -334.054      73.730     -60.621
  H     -336.284      66.135     -60.780
  H     -339.371      66.041     -63.795
  H     -338.162      70.011     -64.496
  H     -337.758      70.214     -62.053
  H     -338.737      67.754     -59.609
  H     -335.893      68.252     -60.670
  H     -335.266      68.692     -58.394
  H     -337.640      70.109     -57.783
  H     -336.803      71.832     -59.570
  H     -335.745      71.482     -58.175
  P     -335.906      67.150     -56.434
  C     -336.219      68.720     -54.365
  O     -336.544      67.493     -54.997
  O     -334.648      68.127     -56.559
  O     -335.613      65.705     -56.676
  H     -334.897      69.057     -56.717
  H     -336.727      68.783     -53.425
  H     -336.522      69.534     -54.990
  H     -335.162      68.769     -54.203

 6  7  8  9  10  11  12  13  14  15  16  27  31  32  33  34  35 0
 6-311+G(2d,p)
 ****
 36  37 0
 6-311+G(2d,p)
 ****
 1  2  3  4  5  17  18  19  20  21  22  23  24  25 0
 3-21G
 ****
 26  28  29  30  38  39  40  41  42  43  44  45 0
 3-21G
 ****


