%nproc=1
%NoSave
%Mem=1900MB
#P OB98/GEN NMR

erre ene a

0 1
  C     -137.015    -351.898     183.759
  O     -137.902    -351.855     184.861
  H     -137.419    -352.545     182.975
  H     -136.898    -350.889     183.358
  H     -136.034    -352.268     184.079
  P     -138.242    -353.252     185.573
  C     -136.807    -355.084     186.720
  O     -136.908    -353.715     186.350
  C     -135.662    -355.271     187.720
  O     -134.414    -354.954     187.048
  C     -135.758    -354.391     188.978
  O     -135.772    -355.206     190.152
  C     -134.482    -353.572     188.970
  O     -133.894    -353.420     190.268
  C     -133.564    -354.353     188.032
  N     -128.821    -352.515     188.436
  C     -129.400    -353.619     188.959
  N     -130.635    -354.112     188.728
  C     -131.290    -353.348     187.833
  C     -130.827    -352.212     187.197
  C     -129.535    -351.784     187.546
  N     -128.965    -350.622     187.057
  N     -131.790    -351.693     186.351
  C     -132.833    -352.480     186.508
  N     -132.586    -353.486     187.405
  O     -138.334    -354.276     184.344
  O     -139.486    -353.261     186.395
  H     -133.717    -354.321     190.600
  H     -139.142    -354.819     184.426
  H     -128.790    -354.183     189.667
  H     -133.802    -352.349     186.030
  H     -133.025    -355.155     188.553
  H     -134.692    -352.576     188.573
  H     -136.645    -353.741     188.971
  H     -135.617    -356.327     188.003
  H     -136.599    -355.692     185.834
  H     -128.082    -350.332     187.454
  H     -129.529    -350.011     186.480
  H     -137.757    -355.413     187.155
  P     -136.956    -356.287     190.273
  C     -137.383    -358.666     189.285
  O     -136.438    -357.644     189.590
  O     -138.044    -355.744     189.227
  O     -137.522    -356.418     191.644
  H     -138.934    -356.035     189.493
  H     -136.878    -359.497     188.838
  H     -138.114    -358.284     188.604
  H     -137.866    -358.985     190.185

 6  7  8  9  10  11  12  13  14  15  25  28  32  33  34  35 0
 6-311+G(2d,p)
 ****
 36  39  40 0
 6-311+G(2d,p)
 ****
 1  2  3  4  5  16  17  18  19  20  21  22  23  24 0
 3-21G
 ****
 26  27  29  30  31  37  38  41  42  43  44  45  46  47  48 0
 3-21G
 ****


