%nproc=1
%NoSave
%Mem=1900MB
#P OB98/GEN NMR

erre ene a

0 1
  C     -170.987     -73.632      13.491
  O     -171.671     -72.683      14.282
  H     -170.427     -74.297      14.153
  H     -170.282     -73.123      12.829
  H     -171.682     -74.230      12.899
  P     -172.814     -71.792      13.599
  C     -174.971     -72.731      14.665
  O     -174.134     -72.701      13.519
  C     -176.409     -72.334      14.300
  O     -176.941     -73.308      13.365
  C     -177.323     -72.348      15.531
  O     -178.408     -71.435      15.401
  C     -177.868     -73.768      15.526
  O     -179.103     -73.896      16.233
  C     -177.985     -74.043      14.028
  N     -180.476     -78.361      12.965
  C     -180.970     -77.166      13.454
  N     -182.304     -77.114      13.684
  N     -180.221     -76.126      13.711
  C     -178.901     -76.342      13.502
  C     -178.293     -77.489      13.044
  C     -179.136     -78.623      12.727
  O     -178.746     -79.712      12.316
  N     -176.930     -77.334      12.965
  C     -176.715     -76.102      13.381
  N     -177.884     -75.450      13.692
  O     -172.359     -71.704      12.066
  O     -173.012     -70.431      14.195
  H     -178.893     -73.906      17.185
  H     -172.763     -70.929      11.638
  H     -181.100     -79.120      12.757
  H     -175.744     -75.630      13.457
  H     -178.945     -73.683      13.642
  H     -177.141     -74.416      16.023
  H     -182.874     -77.948      13.687
  H     -176.790     -72.138      16.454
  H     -182.624     -76.380      14.323
  H     -176.412     -71.366      13.787
  H     -174.550     -72.026      15.386
  H     -174.948     -73.719      15.126
  P     -178.495     -70.199      16.418
  C     -176.288     -68.866      15.826
  O     -177.029     -69.650      16.730
  O     -178.955     -70.870      17.792
  O     -179.428     -69.109      15.987
  H     -179.838     -70.548      18.051
  H     -175.341     -68.622      16.259
  H     -176.825     -67.966      15.611
  H     -176.135     -69.415      14.920

 6  7  8  9  10  11  12  13  14  15  26  29  33  34 0
 6-311+G(2d,p)
 ****
 36  38  39  40  41 0
 6-311+G(2d,p)
 ****
 1  2  3  4  5  16  17  18  19  20  21  22  23  24  25 0
 3-21G
 ****
 27  28  30  31  32  35  37  42  43  44  45  46  47 0
 3-21G
 ****
 48  49 0
 3-21G
 ****


