%nproc=1
%NoSave
%Mem=1900MB
#P OB98/GEN NMR

erre ene a

0 1
  C     -919.099    -349.689     341.635
  O     -919.403    -349.051     340.388
  P     -918.399    -349.267     339.155
  C     -920.617    -349.274     337.824
  O     -919.215    -348.980     337.817
  C     -921.386    -348.336     336.898
  O     -921.407    -346.985     337.402
  C     -920.799    -348.246     335.506
  O     -921.054    -349.424     334.750
  C     -921.442    -346.983     334.978
  O     -922.755    -347.241     334.479
  C     -921.514    -346.090     336.238
  N     -920.513    -345.043     336.292
  C     -920.573    -344.108     335.278
  O     -921.421    -344.197     334.368
  N     -919.657    -343.074     335.279
  C     -918.767    -342.998     336.223
  N     -917.890    -341.950     336.173
  C     -918.682    -343.988     337.311
  C     -919.569    -344.972     337.285
  O     -917.602    -350.525     339.167
  O     -917.441    -347.962     339.263
  H     -923.264    -346.405     334.606
  H     -916.573    -348.192     338.906
  H     -917.918    -343.857     338.084
  H     -919.560    -345.733     338.062
  H     -922.496    -345.623     336.316
  H     -920.867    -346.531     334.160
  H     -919.687    -348.095     335.585
  H     -922.414    -348.690     336.841
  H     -917.983    -341.294     335.404
  H     -920.995    -349.154     338.857
  H     -917.211    -341.776     336.888
  H     -920.755    -350.315     337.552
  P     -919.939    -350.578     334.732
  C     -921.996    -352.159     334.459
  O     -920.632    -351.903     334.140
  O     -919.765    -350.925     336.293
  O     -918.639    -350.190     334.114
  H     -918.836    -351.160     336.468
  H     -922.383    -352.892     333.757
  H     -922.592    -351.250     334.386
  H     -922.062    -352.569     335.475
  H     -919.857    -349.450     342.352
  H     -918.151    -349.344     341.990
  H     -919.063    -350.749     341.494

 3  4  5  6  7  8  9  10  11  12  13  23  27  28  29  30  32 0
 6-311+G(2d,p)
 ****
 34  35 0
 6-311+G(2d,p)
 ****
 1  2  14  15  16  17  18  19  20  21  22  24  25  26 0
 3-21G
 ****
 31  33  36  37  38  39  40  41  42  43  44  45  46 0
 3-21G
 ****


