%nproc=1
%NoSave
%Mem=1900MB
#P OB98/GEN NMR

erre ene a

0 1
  C      -72.470      61.499     475.847
  O      -71.142      61.950     476.049
  H      -73.155      62.330     476.043
  H      -72.715      60.685     476.534
  H      -72.604      61.169     474.815
  P      -69.960      60.870     475.977
  C      -69.848      60.762     478.563
  O      -70.044      60.044     477.347
  C      -69.867      59.804     479.751
  O      -71.103      59.063     479.774
  C      -68.759      58.759     479.694
  O      -67.511      59.320     480.055
  C      -69.305      57.710     480.648
  O      -69.068      58.074     482.012
  C      -70.814      57.748     480.314
  N      -71.218      56.701     479.383
  C      -71.568      55.471     479.954
  O      -71.539      55.319     481.172
  N      -71.927      54.442     479.115
  C      -71.947      54.621     477.833
  N      -72.312      53.563     477.064
  C      -71.596      55.906     477.193
  C      -71.242      56.889     478.018
  O      -68.590      61.390     475.656
  O      -70.474      59.817     474.884
  H      -69.596      57.452     482.549
  H      -70.185      60.083     473.991
  H      -71.636      56.010     476.113
  H      -70.967      57.866     477.629
  H      -71.410      57.645     481.230
  H      -68.843      56.737     480.480
  H      -68.708      58.311     478.691
  H      -69.806      60.392     480.675
  H      -72.528      52.698     477.545
  H      -70.664      61.487     478.649
  H      -72.446      53.609     476.062
  H      -68.898      61.312     478.538
  P      -66.146      58.737     479.452
  C      -65.842      57.262     481.551
  O      -65.966      57.290     480.126
  O      -64.963      59.641     479.549
  O      -66.545      58.377     477.935
  H      -66.634      59.189     477.382
  H      -65.728      56.250     481.879
  H      -66.720      57.684     481.994
  H      -64.985      57.831     481.846

 6  7  8  9  10  11  12  13  14  15  16  26  30  31  32  33  35 0
 6-311+G(2d,p)
 ****
 37  38 0
 6-311+G(2d,p)
 ****
 1  2  3  4  5  17  18  19  20  21  22  23  24  25 0
 3-21G
 ****
 27  28  29  34  36  39  40  41  42  43  44  45  46 0
 3-21G
 ****


