%nproc=1
%NoSave
%Mem=1900MB
#P OB98/GEN NMR

erre ene a

0 1
  C      -55.902      -9.792     -29.520
  O      -55.525     -10.489     -30.693
  H      -56.343      -8.834     -29.806
  H      -55.020      -9.604     -28.901
  H      -56.640     -10.367     -28.953
  P      -55.073     -12.013     -30.501
  C      -56.305     -14.218     -29.797
  O      -56.311     -12.798     -29.837
  C      -56.832     -14.706     -28.451
  O      -55.970     -14.280     -27.378
  C      -58.188     -14.138     -28.069
  O      -59.243     -14.695     -28.823
  C      -58.241     -14.503     -26.592
  O      -58.705     -15.843     -26.393
  C      -56.758     -14.367     -26.167
  N      -56.551     -13.231     -25.289
  C      -56.553     -13.525     -23.919
  O      -56.703     -14.686     -23.536
  N      -56.424     -12.494     -23.026
  C      -56.330     -11.275     -23.458
  N      -56.238     -10.296     -22.518
  C      -56.326     -10.922     -24.892
  C      -56.440     -11.940     -25.745
  O      -54.020     -11.912     -29.303
  O      -54.539     -12.666     -31.730
  H      -58.271     -16.389     -27.081
  H      -54.340     -11.401     -28.542
  H      -56.231      -9.892     -25.201
  H      -56.446     -11.771     -26.816
  H      -56.425     -15.271     -25.642
  H      -58.918     -13.847     -26.039
  H      -58.176     -13.044     -28.150
  H      -56.850     -15.804     -28.469
  H      -56.300     -10.578     -21.547
  H      -55.295     -14.604     -29.972
  H      -56.239      -9.311     -22.733
  H      -56.942     -14.577     -30.610
  P      -60.686     -14.005     -28.871
  C      -61.542     -11.677     -29.568
  O      -60.439     -12.429     -29.074
  O      -61.594     -14.342     -27.737
  O      -61.248     -14.440     -30.307
  H      -60.705     -14.154     -31.062
  H      -61.260     -10.649     -29.661
  H      -62.364     -11.761     -28.888
  H      -61.831     -12.056     -30.526

 6  7  8  9  10  11  12  13  14  15  16  26  30  31  32  33  35 0
 6-311+G(2d,p)
 ****
 37  38 0
 6-311+G(2d,p)
 ****
 1  2  3  4  5  17  18  19  20  21  22  23  24  25 0
 3-21G
 ****
 27  28  29  34  36  39  40  41  42  43  44  45  46 0
 3-21G
 ****


