%nproc=1
%NoSave
%Mem=1900MB
#P OB98/GEN NMR

erre ene a

0 1
  C      120.974     482.790    -630.311
  O      122.083     481.891    -630.161
  P      122.760     481.765    -628.710
  C      124.811     483.272    -629.288
  O      123.669     483.077    -628.477
  C      125.380     484.671    -629.088
  O      125.981     484.825    -627.781
  C      126.462     485.049    -630.093
  O      125.922     485.508    -631.321
  C      127.162     486.197    -629.367
  O      126.388     487.413    -629.540
  C      127.105     485.728    -627.897
  N      130.921     485.778    -624.581
  C      129.851     486.635    -624.700
  N      129.761     487.629    -623.802
  N      128.925     486.505    -625.618
  C      129.127     485.448    -626.438
  C      130.160     484.540    -626.422
  C      131.186     484.694    -625.398
  O      132.182     483.985    -625.260
  N      130.032     483.613    -627.424
  C      128.904     483.940    -628.028
  N      128.330     485.067    -627.477
  O      123.851     480.609    -628.938
  O      121.802     481.424    -627.620
  H      126.326     487.566    -630.506
  H      124.010     480.152    -628.085
  H      131.616     485.936    -623.848
  H      128.472     483.403    -628.872
  H      126.934     486.564    -627.206
  H      128.157     486.395    -629.751
  H      130.409     487.766    -623.043
  H      127.174     484.206    -630.238
  H      128.942     488.247    -623.849
  H      124.549     485.397    -629.177
  H      124.549     483.120    -630.349
  H      125.557     482.497    -629.051
  P      126.072     484.561    -632.615
  C      128.239     485.778    -633.341
  O      127.631     484.559    -632.996
  O      125.387     485.437    -633.775
  O      125.414     483.218    -632.468
  H      124.970     484.841    -634.436
  H      129.330     485.623    -633.410
  H      128.059     486.550    -632.595
  H      127.882     486.110    -634.317
  H      120.631     482.767    -631.324
  H      121.284     483.783    -630.061
  H      120.181     482.489    -629.659

 3  4  5  6  7  8  9  10  11  12  23  26  30  31 0
 6-311+G(2d,p)
 ****
 33  35  36  37  38 0
 6-311+G(2d,p)
 ****
 1  2  13  14  15  16  17  18  19  20  21  22  24  25 0
 3-21G
 ****
 27  28  29  32  34  39  40  41  42  43  44  45  46  47  48  49 0
 3-21G
 ****


