%nproc=1
%NoSave
%Mem=1900MB
#P OB98/GEN NMR

erre ene a

0 1
  C       13.624    -146.648     -27.229
  O       14.931    -147.116     -27.568
  P       16.161    -146.312     -26.923
  C       18.372    -145.935     -28.227
  O       17.514    -146.866     -27.582
  C       19.290    -146.646     -29.223
  O       20.044    -147.710     -28.612
  C       18.541    -147.281     -30.386
  O       18.210    -146.294     -31.348
  C       19.557    -148.295     -30.894
  O       20.508    -147.682     -31.790
  C       20.255    -148.750     -29.602
  N       20.653    -153.788     -29.974
  C       21.165    -152.797     -30.788
  N       21.911    -153.206     -31.837
  N       20.966    -151.520     -30.590
  C       20.204    -151.257     -29.503
  C       19.664    -152.150     -28.608
  C       19.890    -153.561     -28.839
  O       19.476    -154.474     -28.135
  N       19.002    -151.504     -27.593
  C       19.036    -150.234     -27.951
  N       19.807    -150.023     -29.067
  O       16.210    -146.859     -25.419
  O       15.990    -144.830     -26.963
  H       21.112    -148.367     -32.128
  H       15.926    -146.157     -24.803
  H       20.830    -154.757     -30.179
  H       18.544    -149.429     -27.425
  H       21.338    -148.843     -29.743
  H       19.081    -149.101     -31.458
  H       22.107    -154.172     -32.047
  H       17.644    -147.797     -30.022
  H       22.302    -152.495     -32.441
  H       20.002    -145.902     -29.603
  H       18.973    -145.406     -27.486
  H       17.759    -145.182     -28.731
  P       16.705    -146.258     -31.898
  C       17.347    -145.215     -34.186
  O       16.618    -145.084     -32.981
  O       15.876    -145.695     -30.648
  O       16.176    -147.582     -32.341
  H       15.059    -146.215     -30.539
  H       16.818    -144.678     -34.976
  H       17.459    -146.261     -34.480
  H       18.337    -144.769     -34.056
  H       12.890    -147.257     -27.714
  H       13.514    -145.633     -27.550
  H       13.489    -146.703     -26.169

 3  4  5  6  7  8  9  10  11  12  23  26  30  31 0
 6-311+G(2d,p)
 ****
 33  35  36  37  38 0
 6-311+G(2d,p)
 ****
 1  2  13  14  15  16  17  18  19  20  21  22  24  25 0
 3-21G
 ****
 27  28  29  32  34  39  40  41  42  43  44  45  46  47  48  49 0
 3-21G
 ****


