%nproc=1
%NoSave
%Mem=1900MB
#P OB98/GEN NMR

erre ene a

0 1
  C      122.161       1.832     175.481
  O      121.051       2.117     176.308
  H      123.005       2.449     175.799
  H      121.927       2.072     174.441
  H      122.448       0.779     175.562
  P      119.738       1.204     176.187
  C      119.946       0.411     178.633
  O      119.892       0.026     177.266
  C      118.615       0.101     179.315
  O      118.261      -1.283     179.117
  C      118.625       0.316     180.825
  O      118.565       1.694     181.145
  C      117.400      -0.492     181.234
  O      116.197       0.253     181.006
  C      117.493      -1.701     180.271
  N      118.086      -2.889     180.888
  C      117.333      -3.511     181.880
  O      116.241      -3.084     182.263
  N      117.886      -4.636     182.436
  C      119.126      -5.137     182.156
  O      119.597      -6.122     182.723
  C      119.891      -4.419     181.128
  C      119.347      -3.344     180.552
  O      119.387       0.749     174.808
  O      118.584       2.118     176.820
  H      115.453      -0.347     181.207
  H      118.066       2.535     176.105
  H      117.360      -5.095     183.163
  H      120.885      -4.786     180.886
  H      119.899      -2.802     179.792
  H      116.495      -1.970     179.903
  H      117.409      -0.765     182.290
  H      119.517      -0.149     181.268
  H      117.838       0.722     178.842
  H      120.146       1.488     178.690
  H      120.766      -0.130     179.121
  P      119.097       2.232     182.554
  C      121.481       2.773     181.775
  O      120.681       1.948     182.613
  O      118.333       1.756     183.745
  O      119.020       3.825     182.415
  H      118.268       4.168     182.938
  H      122.511       2.505     181.888
  H      121.347       3.798     182.051
  H      121.187       2.637     180.755

 6  7  8  9  10  11  12  13  14  15  16  26  31  32  33  34  35 0
 6-311+G(2d,p)
 ****
 36  37 0
 6-311+G(2d,p)
 ****
 1  2  3  4  5  17  18  19  20  21  22  23  24  25 0
 3-21G
 ****
 27  28  29  30  38  39  40  41  42  43  44  45 0
 3-21G
 ****


