%nproc=1
%NoSave
%Mem=1900MB
#P OB98/GEN NMR

erre ene a

0 1
  C       45.317       5.412       3.203
  O       45.676       6.037       1.991
  P       47.072       5.723       1.274
  C       49.373       6.880       1.161
  O       48.143       6.767       1.867
  C       50.390       7.676       1.987
  O       50.461       7.095       3.326
  C       51.808       7.644       1.382
  O       52.400       8.931       1.196
  C       52.554       6.711       2.323
  O       53.960       6.862       2.287
  C       51.860       6.999       3.659
  N       52.125       5.969       4.661
  C       52.978       6.307       5.708
  O       53.507       7.406       5.846
  N       53.270       5.303       6.590
  C       52.899       3.998       6.469
  O       53.280       3.130       7.244
  C       52.031       3.692       5.321
  C       51.669       4.675       4.495
  O       47.029       5.669      -0.215
  O       47.533       4.351       1.963
  H       54.350       6.173       2.858
  H       47.645       4.395       2.928
  H       53.887       5.535       7.353
  H       51.730       2.662       5.193
  H       51.031       4.481       3.640
  H       52.164       7.963       4.067
  H       52.336       5.681       2.014
  H       51.797       7.211       0.374
  H       50.019       8.701       2.072
  H       49.191       7.400       0.218
  H       49.753       5.882       0.917
  P       53.263       9.371      -0.079
  C       55.702       9.024      -0.909
  O       54.704       8.687       0.034
  O       53.278      10.837      -0.360
  O       52.575       8.573      -1.286
  H       52.688       9.077      -2.115
  H       56.378       8.171      -1.021
  H       56.276       9.877      -0.537
  H       55.271       9.266      -1.883
  H       44.352       5.758       3.511
  H       46.039       5.652       3.956
  H       45.288       4.352       3.062

 3  4  5  6  7  8  9  10  11  12  13  23  28  29  30  31  32 0
 6-311+G(2d,p)
 ****
 33  34 0
 6-311+G(2d,p)
 ****
 1  2  14  15  16  17  18  19  20  21  22  24  25  26  27 0
 3-21G
 ****
 35  36  37  38  39  40  41  42  43  44  45 0
 3-21G
 ****


