%nproc=1
%NoSave
%Mem=1900MB
#P OB98/GEN NMR

erre ene a

0 1
  C     -778.072    -334.255     312.115
  O     -778.597    -335.565     312.216
  H     -777.911    -333.840     313.120
  H     -777.117    -334.295     311.594
  H     -778.760    -333.612     311.556
  P     -780.004    -335.717     312.983
  C     -780.742    -335.812     315.459
  O     -779.665    -335.912     314.543
  C     -780.531    -336.784     316.624
  O     -780.808    -338.123     316.144
  C     -779.106    -336.766     317.208
  O     -779.147    -336.640     318.635
  C     -778.550    -338.140     316.862
  O     -777.668    -338.648     317.852
  C     -779.811    -338.989     316.713
  N     -777.941    -343.732     316.651
  C     -778.366    -342.961     317.664
  N     -778.944    -341.739     317.605
  C     -779.101    -341.345     316.327
  C     -778.733    -342.038     315.184
  C     -778.107    -343.287     315.376
  N     -777.625    -344.056     314.348
  N     -779.042    -341.310     314.049
  C     -779.541    -340.171     314.513
  N     -779.582    -340.146     315.874
  O     -780.517    -337.166     312.519
  O     -780.997    -334.651     312.661
  H     -777.410    -339.556     317.574
  H     -781.365    -337.061     312.041
  H     -778.222    -343.368     318.663
  H     -779.849    -339.339     313.894
  H     -780.179    -339.333     317.687
  H     -778.001    -338.078     315.909
  H     -778.489    -335.968     316.787
  H     -781.269    -336.557     317.406
  H     -781.680    -336.066     314.953
  H     -777.082    -344.875     314.576
  H     -777.647    -343.673     313.406
  H     -780.806    -334.783     315.829
  P     -778.325    -335.397     319.257
  C     -775.968    -335.026     320.307
  O     -776.879    -335.950     319.712
  O     -779.083    -335.119     320.638
  O     -778.297    -334.193     318.379
  H     -779.377    -334.193     320.666
  H     -775.058    -335.532     320.555
  H     -776.403    -334.618     321.195
  H     -775.760    -334.236     319.617

 6  7  8  9  10  11  12  13  14  15  25  28  32  33  34  35 0
 6-311+G(2d,p)
 ****
 36  39  40 0
 6-311+G(2d,p)
 ****
 1  2  3  4  5  16  17  18  19  20  21  22  23  24 0
 3-21G
 ****
 26  27  29  30  31  37  38  41  42  43  44  45  46  47  48 0
 3-21G
 ****


