%nproc=1
%NoSave
%Mem=1900MB
#P OB98/GEN NMR

erre ene a

0 1
  C      210.602    -253.687    -476.113
  O      209.945    -253.253    -477.288
  H      209.854    -254.067    -475.406
  H      211.127    -252.848    -475.650
  H      211.310    -254.493    -476.345
  P      210.868    -252.760    -478.505
  C      209.041    -253.300    -480.286
  O      209.861    -252.313    -479.680
  C      207.867    -252.632    -481.012
  O      206.976    -252.062    -480.004
  C      208.302    -251.491    -481.940
  O      207.464    -251.489    -483.100
  C      208.029    -250.243    -481.107
  O      207.848    -249.068    -481.893
  C      206.775    -250.667    -480.338
  N      206.571    -249.881    -479.130
  C      205.469    -249.026    -479.092
  O      204.618    -248.941    -479.991
  N      205.358    -248.240    -477.978
  C      206.240    -248.195    -476.925
  O      206.102    -247.448    -475.969
  C      207.382    -249.123    -477.019
  C      207.494    -249.906    -478.095
  O      211.502    -254.123    -479.062
  O      211.905    -251.741    -478.157
  H      212.343    -254.316    -478.608
  H      207.422    -248.395    -481.326
  H      204.569    -247.609    -477.951
  H      208.099    -249.112    -476.211
  H      208.344    -250.581    -478.203
  H      205.898    -250.606    -480.982
  H      208.864    -250.066    -480.421
  H      209.349    -251.559    -482.241
  H      207.305    -253.395    -481.553
  H      208.650    -253.970    -479.507
  H      209.640    -253.893    -480.993
  P      208.136    -251.872    -484.509
  C      206.356    -253.680    -485.174
  O      206.941    -252.411    -485.436
  O      208.956    -253.188    -484.111
  O      208.956    -250.762    -485.086
  H      208.500    -253.754    -483.459
  H      205.582    -253.870    -485.888
  H      205.941    -253.685    -484.188
  H      207.105    -254.440    -485.249

 6  7  8  9  10  11  12  13  14  15  16  27  31  32  33  34  35 0
 6-311+G(2d,p)
 ****
 36  37 0
 6-311+G(2d,p)
 ****
 1  2  3  4  5  17  18  19  20  21  22  23  24  25 0
 3-21G
 ****
 26  28  29  30  38  39  40  41  42  43  44  45 0
 3-21G
 ****


