%nproc=1
%NoSave
%Mem=1900MB
#P OB98/GEN NMR

erre ene a

0 1
  C      424.764     854.106     480.449
  O      425.413     853.988     479.197
  H      425.073     853.274     481.082
  H      423.681     854.059     480.308
  H      425.040     855.045     480.935
  P      425.239     855.217     478.176
  C      423.915     853.668     476.524
  O      425.003     854.546     476.737
  C      424.407     852.341     475.938
  O      424.953     852.586     474.621
  C      425.495     851.663     476.772
  O      425.289     850.246     476.721
  C      426.780     852.024     476.050
  O      427.823     851.097     476.319
  C      426.308     852.091     474.588
  N      427.168     852.930     473.759
  C      428.388     852.376     473.360
  O      428.700     851.243     473.723
  N      429.244     853.137     472.599
  C      428.935     854.363     472.323
  N      429.835     855.065     471.575
  C      427.679     855.006     472.768
  C      426.848     854.237     473.461
  O      426.733     855.782     478.093
  O      424.216     856.219     478.595
  H      428.640     851.410     475.853
  H      427.413     855.094     478.054
  H      427.473     856.039     472.518
  H      425.903     854.622     473.827
  H      426.281     851.076     474.152
  H      427.123     853.017     476.381
  H      425.510     851.987     477.812
  H      423.544     851.677     475.797
  H      430.687     854.601     471.308
  H      423.190     854.115     475.842
  H      429.724     856.048     471.344
  H      423.422     853.499     477.488
  P      424.212     849.571     477.696
  C      425.296     847.236     477.690
  O      424.144     847.997     477.392
  O      422.894     850.266     477.778
  O      424.956     849.602     479.123
  H      424.288     849.811     479.804
  H      425.120     846.210     477.442
  H      425.517     847.318     478.734
  H      426.124     847.603     477.120

 6  7  8  9  10  11  12  13  14  15  16  26  30  31  32  33  35 0
 6-311+G(2d,p)
 ****
 37  38 0
 6-311+G(2d,p)
 ****
 1  2  3  4  5  17  18  19  20  21  22  23  24  25 0
 3-21G
 ****
 27  28  29  34  36  39  40  41  42  43  44  45  46 0
 3-21G
 ****


