%nproc=1
%NoSave
%Mem=1900MB
#P OB98/GEN NMR

erre ene a

0 1
  C     -294.854     122.996     -86.898
  O     -293.475     123.039     -86.616
  P     -292.420     123.891     -87.454
  C     -291.310     121.827     -88.614
  O     -292.014     123.053     -88.761
  C     -290.046     121.808     -89.483
  O     -290.412     122.166     -90.842
  C     -289.021     122.853     -89.007
  O     -287.675     122.393     -89.020
  C     -289.352     124.068     -89.867
  O     -288.289     125.010     -89.953
  C     -289.772     123.415     -91.180
  N     -290.292     126.341     -95.300
  C     -289.237     125.522     -94.945
  N     -288.120     125.633     -95.689
  N     -289.281     124.693     -93.931
  C     -290.424     124.772     -93.215
  C     -291.532     125.544     -93.471
  C     -291.490     126.431     -94.610
  O     -292.349     127.260     -94.894
  N     -292.483     125.417     -92.488
  C     -291.935     124.590     -91.621
  N     -290.673     124.197     -91.999
  O     -291.331     124.560     -86.684
  O     -293.361     125.051     -88.079
  H     -288.590     125.740     -90.522
  H     -292.816     125.862     -88.131
  H     -290.169     127.018     -96.047
  H     -292.391     124.269     -90.690
  H     -288.909     123.190     -91.808
  H     -290.194     124.584     -89.397
  H     -288.009     126.365     -96.380
  H     -289.189     123.106     -87.956
  H     -287.267     125.237     -95.304
  H     -289.635     120.795     -89.503
  H     -292.000     121.036     -88.937
  H     -291.061     121.647     -87.564
  P     -286.577     122.473     -87.863
  C     -285.064     124.107     -89.143
  O     -285.825     123.884     -87.969
  O     -285.445     121.434     -88.294
  O     -287.086     122.148     -86.496
  H     -285.115     120.963     -87.502
  H     -284.398     124.953     -88.979
  H     -285.738     124.338     -89.974
  H     -284.467     123.222     -89.393
  H     -295.342     122.356     -86.194
  H     -295.004     122.618     -87.888
  H     -295.263     123.982     -86.827

 3  4  5  6  7  8  9  10  11  12  23  26  30  31 0
 6-311+G(2d,p)
 ****
 33  35  36  37  38 0
 6-311+G(2d,p)
 ****
 1  2  13  14  15  16  17  18  19  20  21  22  24  25 0
 3-21G
 ****
 27  28  29  32  34  39  40  41  42  43  44  45  46  47  48  49 0
 3-21G
 ****


