%nproc=1
%NoSave
%Mem=1900MB
#P OB98/GEN NMR

erre ene a

0 1
  C       18.073       8.833     -61.929
  O       18.845       7.676     -61.664
  H       18.516       9.365     -62.775
  H       18.078       9.490     -61.055
  H       17.045       8.557     -62.183
  P       18.231       6.636     -60.613
  C       19.507       7.677     -58.571
  O       18.261       7.343     -59.167
  C       19.278       8.366     -57.229
  O       18.620       9.635     -57.411
  C       18.351       7.611     -56.290
  O       18.955       6.462     -55.737
  C       18.049       8.693     -55.262
  O       19.068       8.768     -54.257
  C       18.040       9.976     -56.129
  N       16.705      10.531     -56.254
  C       16.332      11.429     -55.246
  O       17.124      11.713     -54.346
  N       15.063      11.948     -55.264
  C       14.231      11.583     -56.189
  N       12.977      12.110     -56.131
  C       14.583      10.638     -57.269
  C       15.825      10.154     -57.241
  O       19.384       5.534     -60.504
  O       16.894       6.087     -60.984
  H       18.795       9.480     -53.642
  H       20.270       5.906     -60.358
  H       13.857      10.377     -58.025
  H       16.168       9.455     -57.995
  H       18.689      10.743     -55.687
  H       17.105       8.505     -54.745
  H       17.414       7.360     -56.806
  H       20.257       8.544     -56.765
  H       12.762      12.709     -55.343
  H       20.090       8.324     -59.236
  H       12.226      11.839     -56.748
  H       20.070       6.749     -58.434
  P       18.180       5.062     -55.677
  C       17.478       5.612     -53.259
  O       17.039       5.212     -54.553
  O       19.047       3.859     -55.514
  O       17.318       5.066     -57.027
  H       16.688       5.803     -57.108
  H       16.637       5.677     -52.601
  H       17.955       6.568     -53.324
  H       18.172       4.892     -52.879

 6  7  8  9  10  11  12  13  14  15  16  26  30  31  32  33  35 0
 6-311+G(2d,p)
 ****
 37  38 0
 6-311+G(2d,p)
 ****
 1  2  3  4  5  17  18  19  20  21  22  23  24  25 0
 3-21G
 ****
 27  28  29  34  36  39  40  41  42  43  44  45  46 0
 3-21G
 ****


