%nproc=1
%NoSave
%Mem=1900MB
#P OB98/GEN NMR

erre ene a

0 1
  C      779.479    -307.411     906.196
  O      780.295    -306.728     905.249
  P      781.791    -306.351     905.698
  C      781.517    -303.934     904.715
  O      781.819    -304.751     905.840
  C      781.402    -302.476     905.136
  O      780.256    -302.294     906.015
  C      782.590    -301.966     905.930
  O      783.717    -301.735     905.099
  C      782.002    -300.715     906.568
  O      782.002    -299.627     905.624
  C      780.549    -301.154     906.865
  N      780.322    -301.467     908.262
  C      780.124    -300.374     909.105
  O      780.168    -299.210     908.716
  N      779.908    -300.674     910.431
  C      779.887    -301.915     910.979
  O      779.675    -302.123     912.171
  C      780.152    -303.036     910.049
  C      780.354    -302.762     908.757
  O      782.611    -306.648     904.349
  O      782.251    -307.125     906.897
  H      782.102    -306.433     903.550
  H      781.620    -299.982     904.792
  H      779.749    -299.891     911.048
  H      780.180    -304.024     910.463
  H      780.548    -303.577     908.063
  H      779.849    -300.366     906.564
  H      782.566    -300.380     907.451
  H      782.858    -302.688     906.720
  H      781.255    -301.862     904.245
  H      780.570    -304.251     904.263
  H      782.306    -304.067     903.958
  P      784.876    -302.845     905.120
  C      786.243    -301.754     907.060
  O      785.482    -302.850     906.591
  O      786.009    -302.130     904.227
  O      784.439    -304.183     904.604
  H      786.130    -301.198     904.457
  H      786.259    -301.774     908.141
  H      785.820    -300.798     906.731
  H      787.269    -301.830     906.684
  H      778.516    -307.598     905.768
  H      779.369    -306.807     907.073
  H      779.939    -308.341     906.459

 3  4  5  6  7  8  9  10  11  12  13  24  28  29  30  31  32 0
 6-311+G(2d,p)
 ****
 33  34 0
 6-311+G(2d,p)
 ****
 1  2  14  15  16  17  18  19  20  21  22  23  25  26  27 0
 3-21G
 ****
 35  36  37  38  39  40  41  42  43  44  45 0
 3-21G
 ****


