%nproc=1
%NoSave
%Mem=1900MB
#P OB98/GEN NMR

erre ene a

0 1
  C       -2.526     384.705     353.906
  O       -2.019     383.767     354.829
  P       -2.147     383.923     356.414
  C        0.020     385.365     356.686
  O       -0.679     384.174     357.017
  C        1.251     385.059     355.819
  O        1.861     386.318     355.418
  C        2.311     384.268     356.609
  O        2.934     383.224     355.868
  C        3.215     385.367     357.157
  O        4.503     384.918     357.541
  C        3.184     386.403     356.025
  N        6.683     389.989     356.839
  C        6.820     388.774     356.196
  N        8.081     388.394     355.897
  N        5.808     387.991     355.907
  C        4.622     388.450     356.375
  C        4.367     389.636     357.017
  C        5.489     390.508     357.306
  O        5.426     391.546     357.967
  N        3.045     389.738     357.404
  C        2.517     388.598     357.013
  N        3.434     387.770     356.409
  O       -3.040     382.956     357.118
  O       -2.817     385.390     356.546
  H        4.386     384.242     358.229
  H       -3.407     385.371     357.329
  H        7.512     390.509     357.112
  H        1.472     388.314     357.168
  H        3.911     386.161     355.249
  H        2.738     385.774     358.063
  H        8.886     388.903     356.240
  H        1.846     383.741     357.453
  H        8.230     387.412     355.659
  H        0.939     384.537     354.910
  H        0.322     385.820     357.631
  H       -0.649     386.073     356.174
  P        2.736     381.651     356.011
  C        3.153     381.469     358.540
  O        3.615     381.130     357.242
  O        3.489     381.021     354.744
  O        1.303     381.195     356.031
  H        2.978     380.274     354.386
  H        3.964     381.309     359.257
  H        2.311     380.831     358.808
  H        2.847     382.525     358.577
  H       -2.315     384.376     352.910
  H       -2.064     385.655     354.073
  H       -3.584     384.796     354.035

 3  4  5  6  7  8  9  10  11  12  23  26  30  31 0
 6-311+G(2d,p)
 ****
 33  35  36  37  38 0
 6-311+G(2d,p)
 ****
 1  2  13  14  15  16  17  18  19  20  21  22  24  25 0
 3-21G
 ****
 27  28  29  32  34  39  40  41  42  43  44  45  46  47  48  49 0
 3-21G
 ****


