%nproc=1
%NoSave
%Mem=1900MB
#P OB98/GEN NMR

erre ene a

0 1
  C      -42.239     -44.335     404.680
  O      -42.720     -44.115     403.367
  H      -41.155     -44.444     404.643
  H      -42.672     -45.260     405.075
  H      -42.491     -43.496     405.334
  P      -44.241     -43.622     403.220
  C      -45.288     -45.983     402.968
  O      -45.176     -44.812     403.766
  C      -45.749     -47.165     403.825
  O      -47.102     -46.905     404.290
  C      -45.770     -48.503     403.071
  O      -45.332     -49.539     403.958
  C      -47.239     -48.701     402.735
  O      -47.581     -50.078     402.557
  C      -47.910     -48.040     403.929
  N      -52.702     -49.600     403.717
  C      -51.568     -50.253     404.174
  N      -51.736     -51.511     404.637
  N      -50.380     -49.714     404.176
  C      -50.368     -48.439     403.717
  C      -51.409     -47.688     403.238
  C      -52.722     -48.304     403.214
  O      -53.760     -47.793     402.802
  N      -50.991     -46.444     402.835
  C      -49.689     -46.445     403.069
  N      -49.268     -47.631     403.619
  O      -44.478     -43.655     401.636
  O      -44.535     -42.274     403.788
  H      -48.538     -50.118     402.349
  H      -44.639     -42.748     401.310
  H      -53.595     -50.071     403.730
  H      -49.020     -45.622     402.864
  H      -47.970     -48.712     404.801
  H      -47.478     -48.168     401.808
  H      -52.629     -51.969     404.713
  H      -45.141     -48.503     402.178
  H      -50.928     -51.994     405.009
  H      -45.113     -47.226     404.707
  H      -44.312     -46.207     402.526
  H      -46.011     -45.802     402.163
  P      -43.751     -49.670     404.198
  C      -43.153     -51.065     402.093
  O      -43.031     -49.817     402.767
  O      -43.602     -51.131     404.845
  O      -43.183     -48.614     405.093
  H      -43.388     -51.051     405.795
  H      -42.629     -51.020     401.161
  H      -44.187     -51.273     401.911
  H      -42.735     -51.841     402.700

 6  7  8  9  10  11  12  13  14  15  26  29  33  34 0
 6-311+G(2d,p)
 ****
 36  38  39  40  41 0
 6-311+G(2d,p)
 ****
 1  2  3  4  5  16  17  18  19  20  21  22  23  24  25 0
 3-21G
 ****
 27  28  30  31  32  35  37  42  43  44  45  46  47 0
 3-21G
 ****
 48  49 0
 3-21G
 ****


