%nproc=1
%NoSave
%Mem=1900MB
#P OB98/GEN NMR

erre ene a

0 1
  C      -90.942     219.717      21.219
  O      -91.671     218.506      21.270
  P      -93.258     218.503      21.474
  C      -93.312     218.868      24.010
  O      -93.569     217.959      22.949
  C      -93.287     218.155      25.364
  O      -92.817     219.075      26.383
  C      -94.652     217.614      25.812
  O      -94.417     216.358      26.461
  C      -95.121     218.652      26.813
  O      -96.093     218.138      27.714
  C      -93.786     219.057      27.450
  N      -93.859     220.342      28.126
  C      -94.258     220.335      29.464
  O      -94.654     219.290      29.985
  N      -94.211     221.512      30.171
  C      -93.974     222.623      29.543
  N      -93.869     223.756      30.290
  C      -93.797     222.698      28.079
  C      -93.707     221.532      27.444
  O      -94.033     217.831      20.389
  O      -93.646     220.055      21.573
  H      -94.351     220.250      20.925
  H      -96.851     217.793      27.199
  H      -93.728     223.657      27.586
  H      -93.550     221.479      26.373
  H      -93.458     218.298      28.174
  H      -95.566     219.501      26.281
  H      -95.345     217.466      24.978
  H      -92.559     217.337      25.302
  H      -93.956     223.661      31.294
  H      -94.110     219.616      24.018
  H      -93.385     224.586      29.950
  H      -92.365     219.391      23.832
  P      -95.244     215.074      25.961
  C      -97.425     215.197      27.366
  O      -96.168     214.580      27.175
  O      -94.100     213.946      25.930
  O      -95.891     215.177      24.616
  H      -94.355     213.254      25.292
  H      -97.879     214.785      28.269
  H      -98.083     214.991      26.518
  H      -97.310     216.278      27.492
  H      -89.903     219.502      21.078
  H      -91.074     220.252      22.136
  H      -91.297     220.313      20.404

 3  4  5  6  7  8  9  10  11  12  13  24  27  28  29  30  32 0
 6-311+G(2d,p)
 ****
 34  35 0
 6-311+G(2d,p)
 ****
 1  2  14  15  16  17  18  19  20  21  22  23  25  26 0
 3-21G
 ****
 31  33  36  37  38  39  40  41  42  43  44  45  46 0
 3-21G
 ****


