%nproc=1
%NoSave
%Mem=1900MB
#P OB98/GEN NMR

erre ene a

0 1
  C     -322.420      78.659     159.017
  O     -323.066      78.752     160.269
  H     -321.723      77.820     159.044
  H     -321.856      79.575     158.823
  H     -323.139      78.489     158.213
  P     -324.345      79.708     160.412
  C     -326.101      77.851     160.751
  O     -325.393      78.929     161.345
  C     -326.414      76.766     161.785
  O     -325.217      75.959     161.994
  C     -326.841      77.314     163.154
  O     -327.743      76.363     163.734
  C     -325.526      77.319     163.909
  O     -325.730      77.406     165.302
  C     -324.897      76.021     163.397
  N     -323.455      75.963     163.637
  C     -323.026      75.085     164.621
  O     -323.795      74.397     165.295
  N     -321.676      75.044     164.843
  C     -320.745      75.831     164.232
  O     -319.551      75.777     164.495
  C     -321.265      76.780     163.232
  C     -322.574      76.800     162.981
  O     -324.912      80.226     159.134
  O     -323.845      80.893     161.366
  H     -326.029      78.308     165.546
  H     -324.319      81.719     161.151
  H     -321.347      74.402     165.546
  H     -320.552      77.423     162.737
  H     -322.988      77.484     162.248
  H     -325.357      75.149     163.886
  H     -324.916      78.181     163.614
  H     -327.308      78.300     163.097
  H     -327.178      76.097     161.372
  H     -325.476      77.436     159.953
  H     -327.033      78.223     160.312
  P     -329.025      76.815     164.589
  C     -330.608      76.976     162.561
  O     -330.352      76.350     163.813
  O     -329.023      78.256     164.982
  O     -329.002      75.874     165.883
  H     -329.429      76.334     166.630
  H     -331.513      76.585     162.145
  H     -329.795      76.782     161.892
  H     -330.708      78.032     162.704

 6  7  8  9  10  11  12  13  14  15  16  26  31  32  33  34  35 0
 6-311+G(2d,p)
 ****
 36  37 0
 6-311+G(2d,p)
 ****
 1  2  3  4  5  17  18  19  20  21  22  23  24  25 0
 3-21G
 ****
 27  28  29  30  38  39  40  41  42  43  44  45 0
 3-21G
 ****


