%nproc=1
%NoSave
%Mem=1900MB
#P OB98/GEN NMR

erre ene a

0 1
  C     -221.302      31.935      79.237
  O     -222.204      30.891      78.923
  H     -220.282      31.582      79.059
  H     -221.394      32.216      80.290
  H     -221.487      32.805      78.603
  P     -223.773      31.163      79.108
  C     -225.294      31.749      81.114
  O     -224.014      31.296      80.689
  C     -225.440      31.566      82.622
  O     -225.360      30.170      82.967
  C     -224.363      32.278      83.439
  O     -224.680      33.655      83.584
  C     -224.450      31.504      84.744
  O     -225.607      31.934      85.489
  C     -224.652      30.063      84.235
  N     -221.643      26.367      85.970
  C     -222.806      26.892      86.507
  N     -223.197      26.387      87.698
  N     -223.508      27.838      85.937
  C     -222.956      28.293      84.789
  C     -221.803      27.866      84.166
  C     -221.066      26.778      84.776
  O     -220.040      26.272      84.326
  N     -221.529      28.609      83.047
  C     -222.531      29.462      82.972
  N     -223.421      29.321      84.013
  O     -224.701      30.195      78.436
  O     -223.976      32.657      78.576
  H     -225.467      32.877      85.700
  H     -224.217      32.667      77.631
  H     -221.140      25.650      86.466
  H     -222.665      30.197      82.187
  H     -225.273      29.465      84.912
  H     -223.579      31.641      85.385
  H     -222.557      25.879      88.298
  H     -223.363      32.131      83.013
  H     -224.016      26.794      88.131
  H     -226.444      31.910      82.905
  H     -226.048      31.158      80.581
  H     -225.430      32.806      80.857
  P     -223.522      34.767      83.674
  C     -221.692      35.330      85.412
  O     -222.786      34.488      85.071
  O     -223.988      36.173      83.483
  O     -222.430      34.298      82.607
  H     -222.591      34.648      81.693
  H     -221.297      35.035      86.362
  H     -222.026      36.345      85.464
  H     -220.929      35.243      84.666

 6  7  8  9  10  11  12  13  14  15  26  29  33  34 0
 6-311+G(2d,p)
 ****
 36  38  39  40  41 0
 6-311+G(2d,p)
 ****
 1  2  3  4  5  16  17  18  19  20  21  22  23  24  25 0
 3-21G
 ****
 27  28  30  31  32  35  37  42  43  44  45  46  47 0
 3-21G
 ****
 48  49 0
 3-21G
 ****


