%nproc=1
%NoSave
%Mem=1900MB
#P OB98/GEN NMR

erre ene a

0 1
  C     1712.791     411.043     841.635
  O     1713.915     411.049     842.493
  P     1714.934     412.267     842.532
  C     1714.580     412.855     845.070
  O     1714.508     413.243     843.716
  C     1715.789     413.557     845.735
  O     1715.616     414.991     845.704
  C     1715.965     413.121     847.190
  O     1716.895     412.052     847.287
  C     1716.444     414.412     847.862
  O     1717.861     414.597     847.636
  C     1715.641     415.484     847.075
  N     1714.235     415.754     847.488
  C     1713.988     416.576     848.575
  O     1714.871     417.129     849.228
  N     1712.658     416.706     848.932
  C     1711.602     416.158     848.267
  O     1710.465     416.096     848.732
  C     1711.896     415.531     846.976
  C     1713.204     415.330     846.674
  O     1714.546     413.099     841.222
  O     1716.389     411.920     842.565
  H     1718.144     415.309     848.214
  H     1715.168     412.898     840.489
  H     1712.493     417.213     849.807
  H     1711.074     415.207     846.361
  H     1713.440     414.843     845.738
  H     1716.175     416.442     847.072
  H     1716.295     414.364     848.935
  H     1714.990     412.844     847.630
  H     1716.684     413.314     845.159
  H     1714.701     411.775     845.138
  H     1713.651     413.132     845.609
  P     1716.628     410.877     848.326
  C     1716.433     409.160     846.411
  O     1715.749     409.779     847.518
  O     1716.076     411.288     849.647
  O     1718.076     410.198     848.479
  H     1718.508     410.532     849.278
  H     1715.778     408.327     846.079
  H     1717.393     408.792     846.706
  H     1716.510     409.903     845.602
  H     1712.244     410.133     841.770
  H     1713.118     411.115     840.619
  H     1712.161     411.876     841.867

 3  4  5  6  7  8  9  10  11  12  13  23  28  29  30  31  32 0
 6-311+G(2d,p)
 ****
 33  34 0
 6-311+G(2d,p)
 ****
 1  2  14  15  16  17  18  19  20  21  22  24  25  26  27 0
 3-21G
 ****
 35  36  37  38  39  40  41  42  43  44  45 0
 3-21G
 ****


