%nproc=1
%NoSave
%Mem=1900MB
#P OB98/GEN NMR

erre ene a

0 1
  C     -112.137    -899.190    -238.245
  O     -112.655    -898.040    -238.927
  P     -112.888    -896.700    -238.073
  C     -110.404    -895.920    -238.065
  O     -111.524    -896.360    -237.298
  C     -109.806    -894.640    -237.455
  O     -109.372    -894.850    -236.099
  C     -108.608    -894.110    -238.228
  O     -109.000    -893.330    -239.361
  C     -107.980    -893.200    -237.184
  O     -108.680    -891.950    -237.120
  C     -108.203    -893.990    -235.883
  N     -103.661    -894.020    -233.643
  C     -104.562    -892.980    -233.823
  N     -104.200    -891.780    -233.326
  N     -105.715    -893.110    -234.436
  C     -105.946    -894.370    -234.868
  C     -105.127    -895.490    -234.736
  C     -103.862    -895.330    -234.077
  O     -103.018    -896.190    -233.898
  N     -105.710    -896.590    -235.309
  C     -106.879    -896.160    -235.746
  N     -107.062    -894.830    -235.514
  O     -113.853    -897.190    -236.886
  O     -113.503    -895.580    -238.838
  H     -108.354    -891.480    -236.326
  H     -114.397    -896.460    -236.578
  H     -102.788    -893.860    -233.164
  H     -107.620    -896.780    -236.246
  H     -108.425    -893.350    -235.022
  H     -106.926    -892.970    -237.404
  H     -103.366    -891.610    -232.800
  H     -107.918    -894.910    -238.498
  H     -104.858    -891.010    -233.416
  H     -110.601    -893.870    -237.448
  H     -110.701    -895.740    -239.100
  H     -109.657    -896.730    -238.095
  P     -107.927    -893.090    -240.519
  C     -108.199    -895.170    -242.054
  O     -107.467    -894.530    -241.011
  O     -106.655    -892.530    -239.703
  O     -108.347    -892.140    -241.578
  H     -106.138    -891.920    -240.262
  H     -107.647    -896.070    -242.381
  H     -108.297    -894.500    -242.916
  H     -109.183    -895.460    -241.694
  H     -112.036    -900.000    -238.937
  H     -112.809    -899.473    -237.461
  H     -111.180    -898.956    -237.827

 3  4  5  6  7  8  9  10  11  12  23  26  30  31 0
 6-311+G(2d,p)
 ****
 33  35  36  37  38 0
 6-311+G(2d,p)
 ****
 1  2  13  14  15  16  17  18  19  20  21  22  24  25 0
 3-21G
 ****
 27  28  29  32  34  39  40  41  42  43  44  45  46  47  48  49 0
 3-21G
 ****


