%nproc=1
%NoSave
%Mem=1900MB
#P OB98/GEN NMR

erre ene a

0 1
  C      191.401    -133.987     189.422
  O      190.258    -133.293     188.964
  H      192.288    -133.380     189.220
  H      191.503    -134.942     188.898
  H      191.329    -134.163     190.500
  P      188.859    -134.074     189.077
  C      189.312    -135.103     186.722
  O      189.054    -135.334     188.099
  C      188.583    -136.146     185.879
  O      189.250    -137.425     185.962
  C      187.146    -136.405     186.320
  O      186.243    -135.406     185.878
  C      186.890    -137.739     185.639
  O      186.667    -137.530     184.234
  C      188.234    -138.463     185.886
  N      188.236    -139.273     187.106
  C      187.671    -140.549     187.012
  O      187.193    -140.947     185.951
  N      187.631    -141.341     188.137
  C      188.119    -140.900     189.255
  N      188.037    -141.717     190.340
  C      188.738    -139.570     189.394
  C      188.761    -138.818     188.296
  O      187.844    -133.148     188.253
  O      188.404    -134.411     190.457
  H      187.513    -137.230     183.855
  H      186.975    -133.609     188.158
  H      189.122    -139.241     190.350
  H      189.199    -137.827     188.322
  H      188.493    -139.109     185.038
  H      186.015    -138.259     186.031
  H      187.075    -136.546     187.404
  H      188.626    -135.823     184.830
  H      187.552    -142.599     190.230
  H      190.392    -135.173     186.557
  H      188.226    -141.395     191.282
  H      188.970    -134.103     186.436
  P      185.047    -134.992     186.867
  C      183.421    -136.539     185.558
  O      183.967    -136.178     186.819
  O      184.321    -133.804     186.080
  O      185.479    -134.575     188.241
  H      184.030    -133.102     186.690
  H      182.721    -137.338     185.688
  H      184.208    -136.856     184.906
  H      182.922    -135.694     185.130

 6  7  8  9  10  11  12  13  14  15  16  26  30  31  32  33  35 0
 6-311+G(2d,p)
 ****
 37  38 0
 6-311+G(2d,p)
 ****
 1  2  3  4  5  17  18  19  20  21  22  23  24  25 0
 3-21G
 ****
 27  28  29  34  36  39  40  41  42  43  44  45  46 0
 3-21G
 ****


