%nproc=1
%NoSave
%Mem=1900MB
#P OB98/GEN NMR

erre ene a

0 1
  C       39.218      96.374      43.605
  O       37.928      96.411      43.028
  H       39.838      95.675      43.037
  H       39.161      96.032      44.642
  H       39.676      97.366      43.568
  P       36.834      97.308      43.790
  C       35.701      95.193      44.816
  O       36.413      96.399      45.046
  C       34.487      95.129      45.737
  O       34.890      95.250      47.119
  C       33.474      96.245      45.511
  O       32.641      96.015      44.386
  C       32.697      96.177      46.812
  O       31.806      95.047      46.784
  C       33.839      95.958      47.830
  N       34.353      97.207      48.395
  C       33.442      97.996      49.108
  O       32.271      97.642      49.232
  N       33.874      99.189      49.638
  C       35.106      99.558      49.481
  N       35.475     100.754      50.014
  C       36.102      98.750      48.752
  C       35.663      97.603      48.241
  O       35.545      97.212      42.845
  O       37.248      98.700      44.128
  H       32.330      94.280      46.490
  H       34.771      97.633      43.291
  H       37.116      99.106      48.638
  H       36.338      96.958      47.691
  H       33.511      95.312      48.654
  H       32.087      97.064      46.994
  H       33.959      97.224      45.443
  H       34.024      94.140      45.618
  H       34.756     101.314      50.453
  H       36.372      94.352      45.015
  H       36.354     101.203      49.790
  H       35.368      95.146      43.775
  P       32.422      97.231      43.360
  C       30.654      98.280      44.947
  O       31.855      98.467      44.212
  O       31.154      96.761      42.509
  O       33.600      97.542      42.489
  H       31.248      97.008      41.569
  H       30.405      99.186      45.460
  H       30.790      97.493      45.659
  H       29.862      98.020      44.276

 6  7  8  9  10  11  12  13  14  15  16  26  30  31  32  33  35 0
 6-311+G(2d,p)
 ****
 37  38 0
 6-311+G(2d,p)
 ****
 1  2  3  4  5  17  18  19  20  21  22  23  24  25 0
 3-21G
 ****
 27  28  29  34  36  39  40  41  42  43  44  45  46 0
 3-21G
 ****


