%nproc=1
%NoSave
%Mem=1900MB
#P OB98/GEN NMR

erre ene a

0 1
  C      453.057    -180.345     -30.030
  O      452.049    -180.205     -29.023
  P      452.518    -179.891     -27.520
  C      453.609    -181.159     -25.555
  O      453.277    -181.180     -26.939
  C      452.892    -182.297     -24.802
  O      451.470    -182.000     -24.758
  C      453.008    -183.680     -25.456
  O      454.108    -184.508     -25.102
  C      451.756    -184.370     -24.917
  O      452.011    -184.898     -23.602
  C      450.733    -183.239     -24.822
  N      446.196    -184.876     -26.553
  C      446.840    -185.073     -25.379
  N      448.044    -184.600     -25.002
  C      448.589    -183.845     -25.969
  C      448.052    -183.556     -27.214
  C      446.794    -184.112     -27.498
  N      446.142    -183.926     -28.702
  N      448.907    -182.755     -27.943
  C      449.954    -182.578     -27.158
  N      449.806    -183.205     -25.947
  O      451.478    -179.303     -26.625
  O      453.727    -178.857     -27.740
  H      452.723    -185.557     -23.702
  H      453.703    -178.182     -27.032
  H      446.321    -185.688     -24.649
  H      450.836    -182.010     -27.418
  H      450.116    -183.304     -23.912
  H      451.443    -185.214     -25.539
  H      452.943    -183.600     -26.555
  H      453.265    -182.339     -23.769
  H      453.328    -180.199     -25.122
  H      445.260    -184.400     -28.834
  H      446.599    -183.410     -29.433
  H      454.703    -181.232     -25.474
  P      455.307    -184.779     -26.130
  C      455.363    -185.637     -28.608
  O      454.603    -185.118     -27.532
  O      456.308    -185.796     -25.682
  O      455.908    -183.317     -26.372
  H      455.316    -182.718     -26.859
  H      454.679    -185.993     -29.382
  H      455.990    -186.469     -28.276
  H      455.990    -184.840     -29.027
  H      452.594    -180.551     -30.972
  H      453.711    -181.151     -29.770
  H      453.620    -179.438     -30.100

 3  4  5  6  7  8  9  10  11  12  22  25  29  30  31  32 0
 6-311+G(2d,p)
 ****
 33  36  37 0
 6-311+G(2d,p)
 ****
 1  2  13  14  15  16  17  18  19  20  21  23  24  26 0
 3-21G
 ****
 27  28  34  35  38  39  40  41  42  43  44  45  46  47  48 0
 3-21G
 ****


