%nproc=1
%NoSave
%Mem=1900MB
#P OB98/GEN NMR

erre ene a

0 1
  C     -136.759     211.130     466.874
  O     -136.544     210.130     465.893
  P     -135.370     210.352     464.827
  C     -134.901     212.002     462.862
  O     -135.772     211.588     463.911
  C     -135.706     212.170     461.555
  O     -136.969     212.812     461.820
  C     -134.999     213.057     460.527
  O     -133.984     212.324     459.851
  C     -136.164     213.457     459.636
  O     -136.451     212.434     458.661
  C     -137.320     213.580     460.647
  N     -137.653     214.969     460.964
  C     -138.018     215.774     459.915
  O     -138.069     215.369     458.737
  N     -138.321     217.067     460.214
  C     -138.217     217.649     461.451
  O     -138.439     218.840     461.648
  C     -137.789     216.754     462.540
  C     -137.517     215.484     462.269
  O     -135.474     209.103     463.856
  O     -134.009     210.480     465.439
  H     -137.291     212.696     458.225
  H     -134.577     208.807     463.567
  H     -138.619     217.667     459.471
  H     -137.708     217.182     463.528
  H     -137.184     214.796     463.036
  H     -138.225     213.103     460.239
  H     -135.958     214.368     459.078
  H     -134.598     213.947     461.022
  H     -135.904     211.170     461.142
  H     -134.129     211.251     462.714
  H     -134.429     212.958     463.157
  P     -133.258     213.074     458.618
  C     -134.120     213.905     456.285
  O     -134.417     213.213     457.484
  O     -132.275     211.937     458.091
  O     -132.563     214.329     459.028
  H     -132.663     211.047     458.217
  H     -133.085     213.739     455.965
  H     -134.303     214.965     456.421
  H     -134.791     213.531     455.506
  H     -137.571     210.839     467.508
  H     -136.996     212.056     466.393
  H     -135.873     211.249     467.462

 3  4  5  6  7  8  9  10  11  12  13  23  28  29  30  31  32 0
 6-311+G(2d,p)
 ****
 33  34 0
 6-311+G(2d,p)
 ****
 1  2  14  15  16  17  18  19  20  21  22  24  25  26 0
 3-21G
 ****
 27  35  36  37  38  39  40  41  42  43  44  45 0
 3-21G
 ****


