%nproc=1
%NoSave
%Mem=1900MB
#P OB98/GEN NMR

erre ene a

0 1
  C      -90.946     469.987    -119.610
  O      -91.032     469.275    -118.387
  P      -91.441     467.727    -118.459
  C      -89.590     467.115    -116.729
  O      -90.128     466.904    -118.034
  C      -88.067     467.040    -116.764
  O      -87.532     468.183    -117.454
  C      -87.417     467.049    -115.385
  O      -87.520     465.785    -114.770
  C      -85.986     467.456    -115.735
  O      -85.195     466.307    -116.079
  C      -86.183     468.377    -116.963
  N      -85.939     469.780    -116.655
  C      -84.652     470.250    -116.953
  O      -83.810     469.481    -117.435
  N      -84.345     471.560    -116.669
  C      -85.242     472.322    -116.135
  N      -84.884     473.615    -115.876
  C      -86.596     471.861    -115.780
  C      -86.875     470.593    -116.054
  O      -91.559     467.454    -120.027
  O      -92.693     467.375    -117.721
  H      -85.200     465.741    -115.282
  H      -92.172     466.714    -120.207
  H      -87.306     472.545    -115.322
  H      -87.842     470.165    -115.833
  H      -85.507     468.087    -117.780
  H      -85.482     467.944    -114.900
  H      -87.870     467.826    -114.752
  H      -87.779     466.133    -117.323
  H      -83.940     473.898    -116.122
  H      -89.966     466.342    -116.057
  H      -85.516     474.297    -115.478
  H      -89.920     468.090    -116.359
  P      -88.528     465.631    -113.541
  C      -89.837     463.851    -114.845
  O      -89.901     465.100    -114.196
  O      -88.886     467.154    -113.204
  O      -88.036     464.885    -112.344
  H      -89.427     467.201    -112.393
  H      -90.858     463.540    -115.108
  H      -89.387     463.097    -114.201
  H      -89.255     463.940    -115.771
  H      -90.666     471.001    -119.414
  H      -91.896     469.968    -120.101
  H      -90.211     469.529    -120.238

 3  4  5  6  7  8  9  10  11  12  13  21  23  27  28  29  30  32 0
 6-311+G(2d,p)
 ****
 34  35 0
 6-311+G(2d,p)
 ****
 1  2  14  15  16  17  18  19  20  22  24  25  26 0
 3-21G
 ****
 31  33  36  37  38  39  40  41  42  43  44  45  46 0
 3-21G
 ****


