%nproc=1
%NoSave
%Mem=1900MB
#P OB98/GEN NMR

erre ene a

0 1
  C     -322.819    -588.786     288.167
  O     -321.641    -588.069     288.469
  H     -323.679    -588.143     288.366
  H     -322.889    -589.674     288.803
  H     -322.842    -589.085     287.116
  P     -320.236    -588.652     287.969
  C     -318.812    -586.725     287.000
  O     -319.151    -587.482     288.153
  C     -318.100    -585.422     287.392
  O     -319.101    -584.413     287.687
  C     -317.263    -585.600     288.660
  O     -316.151    -584.706     288.707
  C     -318.237    -585.231     289.768
  O     -317.591    -584.820     290.973
  C     -319.047    -584.121     289.093
  N     -322.232    -581.438     292.033
  C     -320.864    -581.337     291.924
  N     -320.261    -580.391     292.688
  N     -320.144    -582.104     291.145
  C     -320.871    -583.050     290.489
  C     -322.225    -583.261     290.544
  C     -323.019    -582.381     291.386
  O     -324.233    -582.446     291.539
  N     -322.600    -584.315     289.747
  C     -321.470    -584.748     289.219
  N     -320.390    -583.994     289.621
  O     -320.403    -588.720     286.376
  O     -319.843    -589.983     288.538
  H     -317.028    -584.052     290.757
  H     -319.774    -589.360     286.001
  H     -322.744    -580.802     292.626
  H     -321.377    -585.583     288.543
  H     -318.555    -583.153     289.221
  H     -318.836    -586.114     290.004
  H     -320.753    -579.933     293.431
  H     -316.899    -586.621     288.786
  H     -319.260    -580.517     292.849
  H     -317.511    -585.049     286.551
  H     -319.745    -586.513     286.472
  H     -318.186    -587.318     286.326
  P     -314.675    -585.320     288.699
  C     -313.474    -584.238     286.592
  O     -313.660    -584.298     287.995
  O     -314.764    -586.535     287.673
  O     -314.186    -585.757     290.046
  H     -314.621    -587.382     288.125
  H     -312.752    -583.484     286.360
  H     -314.404    -583.999     286.119
  H     -313.126    -585.186     286.237

 6  7  8  9  10  11  12  13  14  15  26  29  33  34 0
 6-311+G(2d,p)
 ****
 36  38  39  40  41 0
 6-311+G(2d,p)
 ****
 1  2  3  4  5  16  17  18  19  20  21  22  23  24  25 0
 3-21G
 ****
 27  28  30  31  32  35  37  42  43  44  45  46  47 0
 3-21G
 ****
 48  49 0
 3-21G
 ****


