%nproc=1
%NoSave
%Mem=1900MB
#P OB98/GEN NMR

erre ene a

0 1
  C     -899.012     949.386      60.402
  O     -899.082     949.018      61.769
  P     -897.682     948.716      62.527
  C     -898.612     946.276      63.008
  O     -897.552     947.089      62.515
  C     -898.202     944.793      63.029
  O     -897.552     944.493      61.756
  C     -897.142     944.469      64.090
  O     -897.732     944.341      65.383
  C     -896.562     943.162      63.507
  O     -897.442     942.063      63.822
  C     -896.582     943.453      62.004
  N     -895.272     943.843      61.492
  C     -894.582     942.856      60.802
  O     -895.002     941.715      60.583
  N     -893.322     943.252      60.312
  C     -892.722     944.435      60.549
  O     -891.572     944.705      60.156
  C     -893.472     945.433      61.320
  C     -894.702     945.093      61.744
  O     -898.062     949.074      64.030
  O     -896.522     949.450      61.948
  H     -899.022     948.977      64.189
  H     -896.972     941.253      63.462
  H     -892.792     942.545      59.810
  H     -893.032     946.388      61.516
  H     -895.292     945.803      62.322
  H     -896.912     942.550      61.435
  H     -895.582     942.924      63.919
  H     -896.362     945.222      64.100
  H     -899.082     944.178      63.145
  H     -899.482     946.389      62.380
  H     -898.862     946.610      64.031
  P     -896.712     944.125      66.601
  C     -897.872     941.842      67.174
  O     -896.692     942.534      66.864
  O     -897.562     944.716      67.800
  O     -895.372     944.750      66.384
  H     -898.502     944.474      67.785
  H     -897.752     940.787      66.959
  H     -898.692     942.195      66.533
  H     -898.142     941.978      68.217
  H     -900.000     949.555      60.027
  H     -898.549     948.599      59.844
  H     -898.435     950.281      60.303

 3  4  5  6  7  8  9  10  11  12  13  24  28  29  30  31  32 0
 6-311+G(2d,p)
 ****
 33  34 0
 6-311+G(2d,p)
 ****
 1  2  14  15  16  17  18  19  20  21  22  23  25  26  27 0
 3-21G
 ****
 35  36  37  38  39  40  41  42  43  44  45 0
 3-21G
 ****


