%nproc=1
%NoSave
%Mem=1900MB
#P OB98/GEN NMR

erre ene a

0 1
  C     -336.636     128.436    -181.155
  O     -335.257     128.654    -181.373
  H     -337.228     129.156    -181.727
  H     -336.890     127.428    -181.493
  H     -336.870     128.521    -180.091
  P     -334.671     130.081    -180.935
  C     -334.181     129.199    -178.540
  O     -334.856     130.159    -179.342
  C     -333.654     129.863    -177.275
  O     -332.745     130.934    -177.616
  C     -334.733     130.499    -176.406
  O     -335.392     129.549    -175.586
  C     -333.894     131.454    -175.574
  O     -333.204     130.722    -174.544
  C     -332.895     131.979    -176.615
  N     -332.910     137.088    -176.331
  C     -332.411     136.139    -175.508
  N     -332.456     134.798    -175.652
  C     -333.087     134.464    -176.786
  C     -333.651     135.316    -177.719
  C     -333.539     136.692    -177.461
  N     -334.058     137.663    -178.292
  N     -334.248     134.600    -178.739
  C     -334.017     133.339    -178.441
  N     -333.328     133.203    -177.265
  O     -335.764     131.119    -181.477
  O     -333.296     130.394    -181.420
  H     -333.883     130.209    -174.064
  H     -335.370     132.008    -181.558
  H     -331.917     136.507    -174.611
  H     -334.326     132.491    -179.041
  H     -331.903     132.168    -176.188
  H     -334.487     132.224    -175.080
  H     -335.446     131.076    -177.005
  H     -333.087     129.113    -176.707
  H     -333.341     128.781    -179.108
  H     -334.085     138.602    -177.925
  H     -334.656     137.375    -179.052
  H     -334.876     128.390    -178.287
  P     -336.737     130.016    -174.845
  C     -338.174     129.672    -176.985
  O     -337.697     130.582    -175.998
  O     -336.279     131.332    -174.062
  O     -337.338     128.993    -173.939
  H     -336.838     131.482    -173.277
  H     -338.798     130.194    -177.680
  H     -338.739     128.897    -176.512
  H     -337.343     129.242    -177.504

 6  7  8  9  10  11  12  13  14  15  25  28  32  33  34  35 0
 6-311+G(2d,p)
 ****
 36  39  40 0
 6-311+G(2d,p)
 ****
 1  2  3  4  5  16  17  18  19  20  21  22  23  24 0
 3-21G
 ****
 26  27  29  30  31  37  38  41  42  43  44  45  46  47 0
 3-21G
 ****
 48 0
 3-21G
 ****


