%nproc=1
%NoSave
%Mem=1900MB
#P OB98/GEN NMR

erre ene a

0 1
  C      168.545      15.977    -247.245
  O      168.868      17.189    -246.592
  H      167.800      16.180    -248.016
  H      168.126      15.263    -246.531
  H      169.436      15.554    -247.714
  P      169.909      17.102    -245.376
  C      171.872      18.294    -246.590
  O      171.375      17.089    -246.027
  C      173.271      18.572    -246.050
  O      173.237      18.637    -244.605
  C      174.292      17.493    -246.384
  O      174.767      17.596    -247.713
  C      175.366      17.786    -245.349
  O      176.252      18.828    -245.790
  C      174.538      18.243    -244.128
  N      174.456      17.209    -243.101
  C      175.500      17.190    -242.183
  O      176.443      17.980    -242.215
  N      175.447      16.198    -241.240
  C      174.494      15.226    -241.155
  O      174.544      14.322    -240.328
  C      173.406      15.307    -242.144
  C      173.441      16.275    -243.064
  O      169.715      15.606    -244.839
  O      169.711      18.117    -244.301
  H      169.182      15.613    -244.024
  H      176.981      18.859    -245.141
  H      176.201      16.160    -240.572
  H      172.631      14.555    -242.100
  H      172.663      16.341    -243.817
  H      174.991      19.134    -243.674
  H      175.982      16.910    -245.154
  H      173.871      16.500    -246.185
  H      173.603      19.550    -246.430
  H      171.212      19.125    -246.318
  H      171.886      18.198    -247.680
  P      175.579      16.360    -248.334
  C      174.777      15.998    -250.810
  O      174.621      15.693    -249.437
  O      175.549      15.326    -247.115
  O      176.939      16.721    -248.823
  H      174.717      15.360    -246.609
  H      174.050      15.458    -251.380
  H      175.759      15.718    -251.128
  H      174.639      17.048    -250.960

 6  7  8  9  10  11  12  13  14  15  16  27  31  32  33  34  35 0
 6-311+G(2d,p)
 ****
 36  37 0
 6-311+G(2d,p)
 ****
 1  2  3  4  5  17  18  19  20  21  22  23  24  25 0
 3-21G
 ****
 26  28  29  30  38  39  40  41  42  43  44  45 0
 3-21G
 ****


