%nproc=1
%NoSave
%Mem=1900MB
#P OB98/GEN NMR

erre ene a

0 1
  C     -178.332     126.247      72.963
  O     -177.625     127.382      72.453
  P     -176.490     127.131      71.348
  C     -174.252     125.814      71.204
  O     -175.332     126.243      72.016
  C     -173.218     125.058      72.046
  O     -172.603     125.920      73.034
  C     -173.803     123.886      72.824
  O     -173.909     122.721      72.019
  C     -172.736     123.680      73.889
  O     -171.628     122.939      73.338
  C     -172.312     125.122      74.209
  N     -172.526     125.185      79.265
  C     -171.669     124.511      78.419
  N     -170.723     123.744      79.006
  N     -171.732     124.578      77.114
  C     -172.716     125.394      76.666
  C     -173.628     126.116      77.404
  C     -173.555     126.021      78.846
  O     -174.298     126.585      79.648
  N     -174.475     126.827      76.594
  C     -174.069     126.551      75.370
  N     -173.011     125.673      75.358
  O     -175.797     128.570      71.216
  O     -177.008     126.644      70.036
  H     -171.002     122.788      74.072
  H     -175.417     128.676      70.324
  H     -172.437     125.093      80.262
  H     -174.502     126.962      74.466
  H     -171.238     125.208      74.413
  H     -173.105     123.105      74.744
  H     -170.587     123.682      80.004
  H     -174.759     124.157      73.294
  H     -170.064     123.265      78.401
  H     -172.431     124.687      71.374
  H     -173.777     126.672      70.716
  H     -174.640     125.189      70.394
  P     -175.339     121.995      71.941
  C     -176.675     120.472      73.567
  O     -175.607     121.386      73.395
  O     -175.036     120.712      71.030
  O     -176.434     122.833      71.367
  H     -175.830     120.475      70.514
  H     -176.611     120.043      74.569
  H     -176.622     119.668      72.830
  H     -177.633     120.995      73.473
  H     -179.051     126.570      73.686
  H     -177.640     125.574      73.425
  H     -178.833     125.748      72.160

 3  4  5  6  7  8  9  10  11  12  23  26  30  31 0
 6-311+G(2d,p)
 ****
 33  35  36  37  38 0
 6-311+G(2d,p)
 ****
 1  2  13  14  15  16  17  18  19  20  21  22  24  25 0
 3-21G
 ****
 27  28  29  32  34  39  40  41  42  43  44  45  46  47  48  49 0
 3-21G
 ****


