%nproc=1
%NoSave
%Mem=1900MB
#P OB98/GEN NMR

erre ene a

0 1
  C       48.631     103.698     -72.679
  O       48.030     104.144     -73.893
  P       47.714     105.668     -74.243
  C       45.678     105.321     -75.859
  O       47.031     105.716     -75.689
  C       45.391     104.730     -77.250
  O       45.675     103.307     -77.239
  C       43.910     104.874     -77.599
  O       43.422     106.086     -78.141
  C       43.591     103.646     -78.439
  O       43.703     103.897     -79.841
  C       44.647     102.632     -77.993
  N       43.900      97.592     -77.541
  C       44.487      98.297     -78.572
  N       44.883      97.580     -79.645
  N       44.653      99.592     -78.559
  C       44.134     100.197     -77.468
  C       43.512      99.608     -76.391
  C       43.384      98.166     -76.387
  O       42.884      97.490     -75.494
  N       43.095     100.543     -75.478
  C       43.440     101.695     -76.014
  N       44.082     101.538     -77.220
  O       48.822     106.632     -73.986
  O       46.504     106.036     -73.240
  H       44.445     104.511     -79.978
  H       46.608     106.983     -73.015
  H       43.818      96.591     -77.592
  H       43.257     102.667     -75.570
  H       45.146     102.175     -78.856
  H       42.560     103.317     -78.265
  H       44.675      96.601     -79.767
  H       43.348     104.742     -76.665
  H       45.111      98.112     -80.486
  H       46.057     105.163     -78.000
  H       45.065     106.209     -75.686
  H       45.401     104.599     -75.089
  P       42.086     106.851     -77.701
  C       41.150     107.597     -79.966
  O       41.800     108.002     -78.775
  O       42.526     107.682     -76.406
  O       40.922     105.967     -77.396
  H       41.740     107.977     -75.909
  H       41.287     108.371     -80.726
  H       40.081     107.471     -79.776
  H       41.568     106.656     -80.338
  H       48.730     102.633     -72.700
  H       48.016     103.982     -71.851
  H       49.598     104.144     -72.575

 3  4  5  6  7  8  9  10  11  12  23  26  30  31 0
 6-311+G(2d,p)
 ****
 33  35  36  37  38 0
 6-311+G(2d,p)
 ****
 1  2  13  14  15  16  17  18  19  20  21  22  24  25 0
 3-21G
 ****
 27  28  29  32  34  39  40  41  42  43  44  45  46  47  48  49 0
 3-21G
 ****


