%nproc=1
%NoSave
%Mem=1900MB
#P OB98/GEN NMR

erre ene a

0 1
  C      209.648     -89.630    -349.638
  O      209.022     -88.409    -350.058
  P      209.965     -87.271    -350.684
  C      209.919     -85.546    -348.747
  O      210.689     -86.475    -349.491
  C      210.749     -84.330    -348.320
  O      211.795     -84.718    -347.371
  C      211.455     -83.638    -349.485
  O      211.585     -82.236    -349.169
  C      212.835     -84.266    -349.467
  O      213.792     -83.476    -350.176
  C      213.066     -84.371    -347.956
  N      217.971     -85.053    -346.961
  C      217.281     -83.903    -347.304
  N      218.000     -82.759    -347.357
  N      216.003     -83.872    -347.569
  C      215.401     -85.091    -347.443
  C      215.985     -86.299    -347.115
  C      217.399     -86.309    -346.847
  O      218.069     -87.310    -346.552
  N      215.047     -87.311    -347.111
  C      213.920     -86.711    -347.442
  N      214.076     -85.362    -347.619
  O      208.905     -86.206    -351.253
  O      210.866     -87.764    -351.768
  H      214.688     -83.781    -349.901
  H      208.891     -86.242    -352.230
  H      218.961     -85.008    -346.772
  H      212.963     -87.214    -347.579
  H      213.392     -83.422    -347.515
  H      212.793     -85.257    -349.929
  H      218.976     -82.699    -347.112
  H      210.952     -83.750    -350.452
  H      217.511     -81.895    -347.568
  H      210.091     -83.618    -347.796
  H      209.502     -86.029    -347.848
  H      209.044     -85.240    -349.338
  P      210.992     -81.194    -350.237
  C      212.819     -81.475    -352.064
  O      211.475     -81.704    -351.678
  O      211.864     -79.872    -349.997
  O      209.523     -80.931    -350.107
  H      211.376     -79.082    -350.278
  H      213.384     -82.403    -351.970
  H      213.294     -80.690    -351.458
  H      212.828     -81.156    -353.115
  H      208.907     -90.293    -349.244
  H      210.374     -89.417    -348.882
  H      210.130     -90.090    -350.475

 3  4  5  6  7  8  9  10  11  12  23  26  30  31 0
 6-311+G(2d,p)
 ****
 33  35  36  37  38 0
 6-311+G(2d,p)
 ****
 1  2  13  14  15  16  17  18  19  20  21  22  24  25 0
 3-21G
 ****
 27  28  29  32  34  39  40  41  42  43  44  45  46  47  48  49 0
 3-21G
 ****


