%nproc=1
%NoSave
%Mem=1900MB
#P OB98/GEN NMR

erre ene a

0 1
  C      149.621     756.097     323.812
  O      150.254     754.929     324.311
  P      151.842     754.983     324.536
  C      152.419     754.182     322.102
  O      152.469     753.943     323.499
  C      153.734     753.755     321.440
  O      154.812     754.596     321.913
  C      154.158     752.327     321.753
  O      153.423     751.375     321.003
  C      155.647     752.385     321.424
  O      155.849     752.274     320.001
  C      156.021     753.805     321.897
  N      156.680     753.819     323.200
  C      158.059     753.662     323.197
  O      158.719     753.515     322.168
  N      158.664     753.652     324.429
  C      158.027     753.726     325.634
  O      158.620     753.672     326.709
  C      156.570     753.861     325.578
  C      155.971     753.898     324.383
  O      151.954     754.264     325.961
  O      152.393     756.369     324.490
  H      151.221     753.637     326.112
  H      155.568     751.373     319.751
  H      159.670     753.562     324.451
  H      156.031     753.911     326.517
  H      154.892     753.990     324.326
  H      156.688     754.283     321.170
  H      156.216     751.582     321.898
  H      154.032     752.124     322.820
  H      153.633     753.899     320.361
  H      152.254     755.253     321.928
  H      151.574     753.625     321.679
  P      152.401     750.442     321.821
  C      154.212     748.816     322.784
  O      153.104     749.004     321.931
  O      151.241     750.233     320.748
  O      151.955     751.041     323.117
  H      151.573     750.078     319.851
  H      154.316     747.748     323.000
  H      154.079     749.357     323.733
  H      155.121     749.167     322.291
  H      148.571     755.919     323.712
  H      150.033     756.345     322.856
  H      149.782     756.908     324.491

 3  4  5  6  7  8  9  10  11  12  13  24  28  29  30  31  32 0
 6-311+G(2d,p)
 ****
 33  34 0
 6-311+G(2d,p)
 ****
 1  2  14  15  16  17  18  19  20  21  22  23  25  26  27 0
 3-21G
 ****
 35  36  37  38  39  40  41  42  43  44  45 0
 3-21G
 ****


