%nproc=1
%NoSave
%Mem=1900MB
#P OB98/GEN NMR

erre ene a

0 1
  C      -75.093    -178.591     101.087
  O      -74.421    -177.707     100.198
  P      -74.315    -178.045      98.635
  C      -73.895    -175.545      98.190
  O      -73.436    -176.877      97.969
  C      -73.922    -174.761      96.878
  O      -72.556    -174.476      96.474
  C      -74.595    -175.513      95.733
  O      -75.302    -174.576      94.915
  C      -73.440    -176.071      94.920
  O      -73.817    -176.277      93.547
  C      -72.366    -175.001      95.142
  N      -68.827    -177.044      92.023
  C      -70.080    -176.595      91.787
  N      -70.969    -176.087      92.665
  C      -70.440    -176.021      93.899
  C      -69.173    -176.437      94.293
  C      -68.345    -176.976      93.289
  N      -67.068    -177.425      93.528
  N      -68.991    -176.235      95.647
  C      -70.116    -175.690      96.059
  N      -71.016    -175.527      95.036
  O      -75.621    -178.303      97.953
  O      -73.346    -179.314      98.563
  H      -74.059    -175.406      93.180
  H      -73.649    -179.934      97.869
  H      -70.409    -176.649      90.748
  H      -70.335    -175.403      97.080
  H      -72.469    -174.168      94.429
  H      -73.130    -177.038      95.334
  H      -75.280    -176.298      96.082
  H      -74.418    -173.793      97.057
  H      -73.209    -175.058      98.890
  H      -66.505    -177.685      92.728
  H      -66.649    -177.217      94.428
  H      -74.893    -175.574      98.649
  P      -76.850    -174.329      95.301
  C      -76.582    -171.798      94.756
  O      -77.265    -173.002      94.498
  O      -77.064    -174.327      96.785
  O      -77.562    -175.533      94.518
  H      -77.022    -175.833      93.746
  H      -77.030    -171.002      94.145
  H      -75.528    -171.893      94.477
  H      -76.663    -171.524      95.816
  H      -75.057    -178.194     102.080
  H      -74.615    -179.548     101.068
  H      -76.113    -178.696     100.782

 3  4  5  6  7  8  9  10  11  12  22  25  29  30  31  32 0
 6-311+G(2d,p)
 ****
 33  36  37 0
 6-311+G(2d,p)
 ****
 1  2  13  14  15  16  17  18  19  20  21  23  24  26 0
 3-21G
 ****
 27  28  34  35  38  39  40  41  42  43  44  45  46  47  48 0
 3-21G
 ****


