%nproc=1
%NoSave
%Mem=1900MB
#P OB98/GEN NMR

erre ene a

0 1
  C      657.460    -894.530     518.547
  O      657.613    -893.620     517.442
  P      659.020    -892.840     517.318
  C      659.887    -894.010     515.142
  O      660.004    -893.850     516.559
  C      661.201    -893.600     514.454
  O      662.295    -894.190     515.140
  C      661.287    -894.060     513.022
  O      660.525    -893.210     512.160
  C      662.792    -893.970     512.784
  O      663.177    -892.650     512.352
  C      663.392    -894.310     514.175
  N      663.991    -895.610     514.217
  C      665.171    -895.760     513.456
  O      665.590    -894.810     512.820
  N      665.795    -896.980     513.458
  C      665.287    -897.990     514.105
  N      665.966    -899.170     514.061
  C      664.049    -897.880     514.893
  C      663.454    -896.680     514.910
  O      659.559    -892.830     518.807
  O      658.907    -891.470     516.734
  H      662.933    -892.050     513.082
  H      660.150    -892.050     518.973
  H      663.679    -898.740     515.437
  H      662.529    -896.500     515.463
  H      664.135    -893.580     514.452
  H      663.119    -894.670     511.989
  H      660.957    -895.100     512.925
  H      661.302    -892.500     514.523
  H      666.786    -899.210     513.504
  H      659.066    -893.360     514.798
  H      665.647    -900.000     514.561
  H      659.629    -895.040     514.912
  P      660.139    -893.770     510.727
  C      657.766    -894.540     511.362
  O      659.059    -894.950     511.015
  O      661.430    -894.610     510.316
  O      659.731    -892.770     509.685
  H      661.346    -894.910     509.386
  H      657.114    -895.420     511.399
  H      657.365    -893.830     510.668
  H      657.766    -894.100     512.396
  H      656.488    -894.976     518.510
  H      657.572    -893.996     519.467
  H      658.206    -895.295     518.485

 3  4  5  6  7  8  9  10  11  12  13  21  23  27  28  29  30  32 0
 6-311+G(2d,p)
 ****
 34  35 0
 6-311+G(2d,p)
 ****
 1  2  14  15  16  17  18  19  20  22  24  25  26 0
 3-21G
 ****
 31  33  36  37  38  39  40  41  42  43  44  45  46 0
 3-21G
 ****


