%nproc=1
%NoSave
%Mem=1900MB
#P OB98/GEN NMR

erre ene a

0 1
  C      471.386     171.465    -202.216
  O      470.276     171.161    -201.369
  P      470.210     171.477    -199.802
  C      468.382     171.164    -197.942
  O      468.896     170.770    -199.207
  C      466.896     170.789    -197.743
  O      466.067     171.679    -198.551
  C      466.631     169.367    -198.248
  O      466.898     168.263    -197.406
  C      465.199     169.414    -198.789
  O      464.236     169.003    -197.825
  C      465.009     170.891    -199.150
  N      462.527     170.085    -203.554
  C      462.266     169.576    -202.301
  N      461.239     168.699    -202.207
  N      462.954     169.885    -201.230
  C      464.005     170.699    -201.481
  C      464.378     171.255    -202.691
  C      463.570     170.953    -203.850
  O      463.760     171.388    -204.988
  N      465.512     172.021    -202.556
  C      465.836     171.909    -201.283
  N      464.947     171.121    -200.583
  O      470.446     172.896    -199.421
  O      471.416     170.588    -199.198
  H      464.578     168.198    -197.378
  H      471.767     171.088    -198.428
  H      461.948     169.834    -204.337
  H      466.694     172.380    -200.809
  H      464.064     171.280    -198.731
  H      465.101     168.733    -199.644
  H      460.746     168.330    -203.005
  H      467.268     169.214    -199.130
  H      461.172     168.163    -201.338
  H      466.583     170.951    -196.711
  H      468.516     172.252    -197.870
  H      468.976     170.725    -197.137
  P      467.794     166.984    -197.777
  C      469.461     165.866    -196.182
  O      468.096     166.180    -196.422
  O      469.223     167.612    -198.147
  O      467.271     166.144    -198.906
  H      469.764     166.956    -198.636
  H      469.511     165.082    -195.414
  H      469.982     166.758    -195.799
  H      469.951     165.511    -197.091
  H      471.169     171.149    -203.215
  H      472.256     170.953    -201.861
  H      471.564     172.520    -202.206

 3  4  5  6  7  8  9  10  11  12  23  26  30  31 0
 6-311+G(2d,p)
 ****
 33  35  36  37  38 0
 6-311+G(2d,p)
 ****
 1  2  13  14  15  16  17  18  19  20  21  22  24  25 0
 3-21G
 ****
 27  28  29  32  34  39  40  41  42  43  44  45  46  47  48  49 0
 3-21G
 ****


