%nproc=1
%NoSave
%Mem=1900MB
#P OB98/GEN NMR

erre ene a

0 1
  C     -179.517     167.332    -240.893
  O     -180.014     168.250    -241.862
  P     -180.838     167.674    -243.109
  C     -178.964     168.236    -244.804
  O     -179.797     167.220    -244.244
  C     -177.874     167.612    -245.688
  O     -178.438     166.485    -246.407
  C     -177.303     168.552    -246.761
  O     -176.187     169.368    -246.422
  C     -176.801     167.541    -247.795
  O     -175.500     167.062    -247.425
  C     -177.808     166.401    -247.705
  N     -178.742     165.551    -252.667
  C     -177.627     165.394    -251.920
  N     -177.465     165.645    -250.606
  C     -178.605     166.089    -250.056
  C     -179.820     166.284    -250.693
  C     -179.870     165.999    -252.062
  N     -181.003     166.169    -252.831
  N     -180.772     166.755    -249.797
  C     -180.126     166.844    -248.653
  N     -178.826     166.448    -248.743
  O     -181.978     168.517    -243.590
  O     -181.371     166.263    -242.551
  H     -175.290     166.331    -248.040
  H     -182.267     166.106    -242.894
  H     -176.752     165.028    -252.447
  H     -180.565     167.209    -247.731
  H     -177.332     165.415    -247.772
  H     -176.698     167.986    -248.794
  H     -178.091     169.165    -247.199
  H     -177.056     167.237    -245.048
  H     -178.505     168.810    -243.996
  H     -180.935     165.981    -253.822
  H     -181.833     166.551    -252.408
  H     -179.611     168.921    -245.352
  P     -176.363     170.933    -246.114
  C     -175.307     171.428    -248.462
  O     -176.358     171.661    -247.542
  O     -175.389     171.498    -245.128
  O     -177.889     171.028    -245.668
  H     -178.536     170.857    -246.379
  H     -175.594     171.827    -249.437
  H     -175.110     170.353    -248.566
  H     -174.407     171.938    -248.119
  H     -178.993     167.868    -240.129
  H     -178.850     166.641    -241.365
  H     -180.334     166.797    -240.456

 3  4  5  6  7  8  9  10  11  12  22  25  29  30  31  32 0
 6-311+G(2d,p)
 ****
 33  36  37 0
 6-311+G(2d,p)
 ****
 1  2  13  14  15  16  17  18  19  20  21  23  24  26 0
 3-21G
 ****
 27  28  34  35  38  39  40  41  42  43  44  45  46  47  48 0
 3-21G
 ****


