%nproc=1
%NoSave
%Mem=1900MB
#P OB98/GEN NMR

erre ene a

0 1
  C     -427.992    -480.255     538.446
  O     -428.974    -480.475     537.469
  H     -427.398    -479.385     538.166
  H     -427.319    -481.114     538.515
  H     -428.453    -480.059     539.423
  P     -429.983    -481.716     537.654
  C     -431.565    -480.246     539.107
  O     -431.420    -481.022     537.911
  C     -432.952    -479.615     539.160
  O     -433.143    -478.685     538.069
  C     -434.114    -480.604     539.033
  O     -434.327    -481.383     540.198
  C     -435.255    -479.635     538.763
  O     -435.635    -478.978     539.985
  C     -434.570    -478.639     537.788
  N     -434.827    -478.976     536.362
  C     -435.920    -478.347     535.775
  O     -436.629    -477.570     536.410
  N     -436.218    -478.656     534.456
  C     -435.494    -479.540     533.823
  N     -435.836    -479.784     532.525
  C     -434.340    -480.224     534.426
  C     -434.066    -479.906     535.688
  O     -429.570    -482.745     538.661
  O     -430.182    -482.302     536.175
  H     -435.969    -479.662     540.590
  H     -430.790    -483.078     536.239
  H     -433.799    -480.965     533.854
  H     -433.234    -480.378     536.201
  H     -434.917    -477.625     537.963
  H     -436.145    -480.110     538.362
  H     -433.988    -481.241     538.141
  H     -433.019    -479.031     540.095
  H     -436.624    -479.298     532.142
  H     -430.772    -479.482     539.119
  H     -435.378    -480.519     531.970
  H     -431.444    -480.901     539.984
  P     -434.940    -482.855     539.968
  C     -432.758    -484.256     540.295
  O     -434.014    -483.866     540.814
  O     -434.569    -483.183     538.448
  O     -436.416    -482.986     540.240
  H     -435.347    -483.011     537.850
  H     -432.281    -484.924     540.981
  H     -432.145    -483.390     540.156
  H     -432.898    -484.749     539.356

 6  7  8  9  10  11  12  13  14  15  16  26  30  31  32  33  35 0
 6-311+G(2d,p)
 ****
 37  38 0
 6-311+G(2d,p)
 ****
 1  2  3  4  5  17  18  19  20  21  22  23  24  25 0
 3-21G
 ****
 27  28  29  34  36  39  40  41  42  43  44  45  46 0
 3-21G
 ****


