%nproc=1
%NoSave
%Mem=1900MB
#P OB98/GEN NMR

erre ene a

0 1
  C      139.527     361.786       7.275
  O      140.644     362.622       7.499
  H      139.322     361.183       8.165
  H      138.655     362.412       7.067
  H      139.708     361.135       6.416
  P      142.040     361.898       7.816
  C      143.008     362.008      10.225
  O      141.986     361.508       9.373
  C      142.682     363.443      10.627
  O      141.279     363.564      10.955
  C      143.436     363.937      11.857
  O      144.750     364.364      11.544
  C      142.560     365.108      12.269
  O      142.816     366.232      11.406
  C      141.153     364.552      12.014
  N      137.340     364.805      15.418
  C      137.675     365.598      14.377
  N      138.710     365.465      13.521
  C      139.436     364.376      13.823
  C      139.223     363.483      14.856
  C      138.109     363.723      15.679
  N      137.771     362.925      16.749
  N      140.205     362.510      14.869
  C      140.976     362.799      13.844
  N      140.559     363.925      13.184
  O      143.103     363.095       7.776
  O      142.409     360.774       6.904
  H      142.631     365.933      10.495
  H      144.002     362.740       7.634
  H      137.027     366.457      14.215
  H      141.842     362.226      13.537
  H      140.454     365.320      11.666
  H      142.742     365.443      13.291
  H      143.435     363.191      12.660
  H      142.877     364.091       9.763
  H      143.963     361.992       9.691
  H      137.072     363.288      17.381
  H      138.422     362.209      17.038
  H      143.082     361.372      11.112
  P      145.743     364.651      12.771
  C      146.160     367.217      12.887
  O      145.366     366.111      13.309
  O      147.156     364.870      12.054
  O      145.790     363.570      13.803
  H      147.890     364.648      12.657
  H      145.783     368.116      13.329
  H      146.119     367.300      11.821
  H      147.174     367.066      13.194

 6  7  8  9  10  11  12  13  14  15  25  28  32  33  34  35 0
 6-311+G(2d,p)
 ****
 36  39  40 0
 6-311+G(2d,p)
 ****
 1  2  3  4  5  16  17  18  19  20  21  22  23  24 0
 3-21G
 ****
 26  27  29  30  31  37  38  41  42  43  44  45  46  47 0
 3-21G
 ****
 48 0
 3-21G
 ****


