%nproc=1
%NoSave
%Mem=1900MB
#P OB98/GEN NMR

erre ene a

0 1
  C      107.235     -15.297     323.647
  O      108.161     -15.099     322.599
  H      106.267     -15.557     323.214
  H      107.124     -14.375     324.222
  H      107.551     -16.110     324.306
  P      109.721     -14.994     322.953
  C      110.326     -17.140     321.658
  O      110.295     -16.492     322.922
  C      111.770     -17.399     321.214
  O      112.362     -18.396     322.096
  C      111.896     -17.930     319.776
  O      113.144     -17.458     319.254
  C      111.951     -19.428     320.003
  O      112.460     -20.103     318.876
  C      112.805     -19.491     321.272
  N      112.687     -20.777     321.958
  C      113.721     -21.684     321.760
  O      114.682     -21.460     321.022
  N      113.598     -22.886     322.400
  C      112.533     -23.283     323.155
  O      112.461     -24.386     323.680
  C      111.446     -22.299     323.294
  C      111.572     -21.107     322.705
  O      110.055     -14.224     324.186
  O      110.379     -14.343     321.646
  H      112.499     -21.070     319.047
  H      111.161     -13.814     321.893
  H      114.346     -23.551     322.274
  H      110.584     -22.584     323.879
  H      110.791     -20.361     322.790
  H      113.864     -19.330     321.036
  H      110.950     -19.825     320.199
  H      111.070     -17.624     319.131
  H      112.348     -16.477     321.345
  H      109.827     -16.490     320.933
  H      109.782     -18.089     321.720
  P      113.221     -16.387     318.059
  C      113.868     -14.488     319.680
  O      112.962     -14.924     318.667
  O      112.367     -16.721     316.881
  O      114.768     -16.349     317.646
  H      114.852     -16.099     316.706
  H      113.595     -13.506     320.004
  H      114.862     -14.470     319.285
  H      113.826     -15.162     320.510

 6  7  8  9  10  11  12  13  14  15  16  26  31  32  33  34  35 0
 6-311+G(2d,p)
 ****
 36  37 0
 6-311+G(2d,p)
 ****
 1  2  3  4  5  17  18  19  20  21  22  23  24  25 0
 3-21G
 ****
 27  28  29  30  38  39  40  41  42  43  44  45 0
 3-21G
 ****


