%nproc=1
%NoSave
%Mem=1900MB
#P OB98/GEN NMR

erre ene a

0 1
  C     -101.060    -143.229      59.568
  O     -102.177    -142.505      60.054
  P     -102.532    -141.071      59.440
  C     -101.124    -139.739      61.178
  O     -101.328    -140.083      59.826
  C     -100.967    -138.220      61.347
  O      -99.872    -137.791      60.496
  C     -102.176    -137.399      60.914
  O     -102.071    -136.095      61.495
  C     -101.973    -137.306      59.416
  O     -102.702    -136.229      58.837
  C     -100.429    -137.205      59.294
  N      -99.934    -137.911      58.099
  C     -100.471    -137.530      56.871
  O     -101.262    -136.600      56.749
  N     -100.129    -138.314      55.801
  C      -99.360    -139.439      55.859
  O      -99.320    -140.287      54.973
  C      -98.636    -139.647      57.122
  C      -98.968    -138.903      58.179
  O     -103.742    -140.577      60.368
  O     -102.906    -141.080      57.997
  H     -102.569    -136.286      57.860
  H     -104.595    -140.773      59.938
  H     -100.632    -138.123      54.940
  H      -97.900    -140.444      57.165
  H      -98.489    -139.068      59.142
  H     -100.100    -136.160      59.228
  H     -102.325    -138.233      58.949
  H     -103.142    -137.850      61.168
  H     -100.696    -137.995      62.384
  H     -100.241    -140.263      61.557
  H     -101.970    -140.079      61.790
  P     -103.416    -135.405      62.038
  C     -103.599    -133.599      60.220
  O     -104.156    -134.783      60.758
  O     -103.251    -134.480      63.200
  O     -104.342    -136.664      62.408
  H     -105.051    -136.384      63.014
  H     -103.811    -133.566      59.147
  H     -102.516    -133.561      60.371
  H     -104.064    -132.732      60.701
  H     -100.981    -144.158      60.094
  H     -100.170    -142.656      59.721
  H     -101.186    -143.420      58.523

 3  4  5  6  7  8  9  10  11  12  13  23  28  29  30  31  32 0
 6-311+G(2d,p)
 ****
 33  34 0
 6-311+G(2d,p)
 ****
 1  2  14  15  16  17  18  19  20  21  22  24  25  26  27 0
 3-21G
 ****
 35  36  37  38  39  40  41  42  43  44  45 0
 3-21G
 ****


