%nproc=1
%NoSave
%Mem=1900MB
#P OB98/GEN NMR

erre ene a

0 1
  C      -76.191    -337.665     -31.742
  O      -75.806    -338.972     -32.104
  H      -75.498    -337.294     -30.983
  H      -77.199    -337.684     -31.320
  H      -76.165    -336.988     -32.600
  P      -76.338    -339.577     -33.485
  C      -75.343    -341.923     -33.073
  O      -76.523    -341.162     -33.299
  C      -75.608    -343.117     -32.158
  O      -76.083    -342.651     -30.877
  C      -76.683    -344.056     -32.713
  O      -76.195    -345.048     -33.600
  C      -77.241    -344.685     -31.440
  O      -76.498    -345.858     -31.068
  C      -77.061    -343.582     -30.390
  N      -80.668    -342.535     -26.920
  C      -79.639    -343.456     -26.850
  N      -79.595    -344.210     -25.731
  N      -78.756    -343.622     -27.801
  C      -78.988    -342.867     -28.896
  C      -79.985    -341.935     -29.089
  C      -80.913    -341.705     -28.004
  O      -81.830    -340.890     -28.009
  N      -79.928    -341.391     -30.350
  C      -78.956    -342.054     -30.942
  N      -78.304    -342.901     -30.077
  O      -75.058    -339.491     -34.448
  O      -77.506    -338.862     -34.095
  H      -75.549    -345.627     -31.070
  H      -75.350    -339.354     -35.367
  H      -81.298    -342.431     -26.147
  H      -78.655    -341.930     -31.975
  H      -76.675    -343.987     -29.447
  H      -78.277    -345.003     -31.582
  H      -80.297    -344.185     -25.011
  H      -77.485    -343.486     -33.190
  H      -78.976    -345.024     -25.723
  H      -74.666    -343.650     -31.976
  H      -74.623    -341.248     -32.608
  H      -74.917    -342.256     -34.023
  P      -77.185    -346.111     -34.266
  C      -75.283    -347.920     -34.204
  O      -76.630    -347.576     -33.963
  O      -76.912    -345.929     -35.831
  O      -78.629    -345.945     -33.926
  H      -77.595    -345.363     -36.237
  H      -75.122    -348.943     -33.934
  H      -74.644    -347.292     -33.618
  H      -75.061    -347.786     -35.242

 6  7  8  9  10  11  12  13  14  15  26  29  33  34 0
 6-311+G(2d,p)
 ****
 36  38  39  40  41 0
 6-311+G(2d,p)
 ****
 1  2  3  4  5  16  17  18  19  20  21  22  23  24  25 0
 3-21G
 ****
 27  28  30  31  32  35  37  42  43  44  45  46  47 0
 3-21G
 ****
 48  49 0
 3-21G
 ****


