%nproc=1
%NoSave
%Mem=1900MB
#P OB98/GEN NMR

erre ene a

0 1
  C     -611.753     358.160    -670.927
  O     -612.400     359.411    -670.751
  P     -611.704     360.777    -671.255
  C     -610.781     362.332    -669.400
  O     -610.618     361.115    -670.125
  C     -611.427     362.050    -668.051
  O     -610.735     360.959    -667.399
  C     -611.383     363.221    -667.066
  O     -612.349     364.197    -667.399
  C     -611.611     362.489    -665.746
  O     -613.015     362.205    -665.563
  C     -610.836     361.174    -665.966
  N     -609.510     361.186    -665.341
  C     -609.485     361.011    -663.960
  O     -610.521     360.857    -663.303
  N     -608.267     360.984    -663.321
  C     -607.179     361.145    -664.018
  N     -605.990     361.048    -663.346
  C     -607.173     361.390    -665.462
  C     -608.358     361.386    -666.065
  O     -612.659     361.883    -671.551
  O     -610.803     360.334    -672.493
  H     -613.471     363.072    -665.506
  H     -611.282     360.363    -673.358
  H     -606.237     361.520    -666.004
  H     -608.438     361.536    -667.138
  H     -611.415     360.328    -665.566
  H     -611.268     363.060    -664.868
  H     -610.390     363.682    -667.067
  H     -612.471     361.730    -668.232
  H     -606.043     360.701    -662.391
  H     -611.430     362.997    -669.978
  H     -605.121     360.871    -663.840
  H     -609.792     362.811    -669.281
  P     -612.144     365.679    -666.815
  C     -613.578     365.935    -664.670
  O     -612.329     365.552    -665.227
  O     -613.442     366.461    -667.317
  O     -610.870     366.338    -667.262
  H     -613.236     367.013    -668.092
  H     -613.620     365.568    -663.643
  H     -614.404     365.492    -665.238
  H     -613.658     367.030    -664.655
  H     -612.370     357.381    -670.530
  H     -610.814     358.168    -670.413
  H     -611.587     357.988    -671.970

 3  4  5  6  7  8  9  10  11  12  13  23  27  28  29  30  32 0
 6-311+G(2d,p)
 ****
 34  35 0
 6-311+G(2d,p)
 ****
 1  2  14  15  16  17  18  19  20  21  22  24  25  26 0
 3-21G
 ****
 31  33  36  37  38  39  40  41  42  43  44  45  46 0
 3-21G
 ****


