%nproc=1
%NoSave
%Mem=1900MB
#P OB98/GEN NMR

erre ene a

0 1
  C      -24.490      89.172     -31.885
  O      -23.838      90.431     -31.903
  P      -22.444      90.633     -32.670
  C      -21.233      90.868     -30.415
  O      -21.326      90.139     -31.633
  C      -20.320      90.137     -29.434
  O      -20.851      88.807     -29.222
  C      -18.879      89.925     -29.894
  O      -18.015      91.027     -29.658
  C      -18.466      88.762     -29.001
  O      -18.152      89.248     -27.683
  C      -19.739      87.914     -28.964
  N      -18.132      83.169     -30.004
  C      -18.007      83.946     -28.904
  N      -18.448      85.207     -28.712
  C      -19.115      85.644     -29.793
  C      -19.328      84.968     -30.981
  C      -18.803      83.667     -31.068
  N      -18.951      82.870     -32.182
  N      -20.042      85.752     -31.868
  C      -20.263      86.873     -31.216
  N      -19.731      86.854     -29.956
  O      -22.244      91.992     -33.242
  O      -22.436      89.484     -33.781
  H      -17.761      88.502     -27.191
  H      -21.765      89.683     -34.461
  H      -17.479      83.497     -28.068
  H      -20.798      87.723     -31.615
  H      -19.911      87.455     -27.984
  H      -17.578      88.239     -29.367
  H      -18.837      89.605     -30.943
  H      -20.349      90.668     -28.475
  H      -22.237      90.946     -29.983
  H      -18.656      81.909     -32.106
  H      -19.585      83.177     -32.906
  H      -20.867      91.877     -30.618
  P      -16.801      91.241     -30.691
  C      -15.072      89.828     -29.327
  O      -15.843      89.970     -30.500
  O      -16.134      92.568     -30.596
  O      -17.492      90.972     -32.109
  H      -17.780      90.057     -32.263
  H      -14.622      88.831     -29.321
  H      -15.694      89.932     -28.436
  H      -14.273      90.574     -29.309
  H      -25.398      89.249     -31.324
  H      -23.850      88.445     -31.430
  H      -24.714      88.872     -32.887

 3  4  5  6  7  8  9  10  11  12  22  25  29  30  31  32 0
 6-311+G(2d,p)
 ****
 33  36  37 0
 6-311+G(2d,p)
 ****
 1  2  13  14  15  16  17  18  19  20  21  23  24  26 0
 3-21G
 ****
 27  28  34  35  38  39  40  41  42  43  44  45  46  47  48 0
 3-21G
 ****


