%nproc=1
%NoSave
%Mem=1900MB
#P OB98/GEN NMR

erre ene a

0 1
  C      -83.157     -62.832     -20.429
  O      -83.360     -64.232     -20.419
  H      -83.519     -62.433     -21.380
  H      -82.093     -62.603     -20.331
  H      -83.720     -62.368     -19.614
  P      -82.861     -65.022     -19.115
  C      -80.735     -66.416     -19.602
  O      -81.271     -65.135     -19.302
  C      -80.846     -66.706     -21.096
  O      -80.488     -65.540     -21.858
  C      -79.944     -67.831     -21.588
  O      -80.553     -69.091     -21.358
  C      -79.868     -67.513     -23.074
  O      -81.049     -68.009     -23.735
  C      -79.864     -65.975     -23.093
  N      -75.883     -64.990     -26.182
  C      -76.963     -65.786     -26.337
  N      -77.952     -66.044     -25.455
  C      -77.756     -65.369     -24.309
  C      -76.701     -64.523     -24.006
  C      -75.733     -64.335     -25.007
  N      -74.632     -63.524     -24.843
  N      -76.831     -64.012     -22.731
  C      -77.977     -64.496     -22.297
  N      -78.558     -65.351     -23.199
  O      -83.581     -66.292     -18.812
  O      -82.996     -63.881     -17.998
  H      -80.854     -68.016     -24.691
  H      -82.700     -63.023     -18.349
  H      -77.041     -66.286     -27.298
  H      -78.440     -64.244     -21.349
  H      -80.465     -65.579     -23.920
  H      -79.010     -67.982     -23.560
  H      -78.940     -67.766     -21.154
  H      -81.899     -66.927     -21.319
  H      -81.264     -67.190     -19.035
  H      -73.898     -63.598     -25.530
  H      -74.458     -63.143     -23.925
  H      -79.685     -66.418     -19.291
  P      -79.688     -70.443     -21.365
  C      -80.024     -72.006     -23.377
  O      -79.464     -70.783     -22.915
  O      -80.251     -71.541     -20.533
  O      -78.234     -69.982     -20.885
  H      -77.714     -70.760     -20.604
  H      -79.812     -72.124     -24.419
  H      -81.084     -71.992     -23.228
  H      -79.598     -72.822     -22.831

 6  7  8  9  10  11  12  13  14  15  25  28  32  33  34  35 0
 6-311+G(2d,p)
 ****
 36  39  40 0
 6-311+G(2d,p)
 ****
 1  2  3  4  5  16  17  18  19  20  21  22  23  24 0
 3-21G
 ****
 26  27  29  30  31  37  38  41  42  43  44  45  46  47 0
 3-21G
 ****
 48 0
 3-21G
 ****


