%nproc=1
%NoSave
%Mem=1900MB
#P OB98/GEN NMR

erre ene a

0 1
  C      180.966     -66.997    -292.365
  O      181.285     -66.338    -291.155
  H      181.738     -67.745    -292.576
  H      180.941     -66.276    -293.188
  H      179.997     -67.502    -292.285
  P      180.159     -65.372    -290.551
  C      181.153     -63.262    -291.757
  O      180.031     -64.112    -291.544
  C      180.726     -61.798    -291.684
  O      179.974     -61.426    -292.856
  C      179.787     -61.480    -290.534
  O      180.436     -61.483    -289.280
  C      179.281     -60.105    -290.957
  O      180.178     -59.064    -290.556
  C      179.234     -60.230    -292.497
  N      177.874     -60.248    -292.999
  C      177.411     -59.033    -293.522
  O      178.155     -58.046    -293.553
  N      176.117     -58.956    -293.961
  C      175.337     -59.990    -293.862
  N      174.056     -59.836    -294.281
  C      175.784     -61.290    -293.317
  C      177.053     -61.350    -292.909
  O      180.888     -64.754    -289.269
  O      178.858     -66.037    -290.253
  H      179.712     -58.217    -290.724
  H      181.778     -64.408    -289.452
  H      175.101     -62.124    -293.265
  H      177.464     -62.261    -292.495
  H      179.765     -59.388    -292.967
  H      178.308     -59.879    -290.503
  H      178.932     -62.173    -290.539
  H      181.634     -61.179    -291.644
  H      173.774     -58.915    -294.596
  H      181.619     -63.474    -292.728
  H      173.342     -60.546    -294.181
  H      181.890     -63.484    -290.981
  P      179.753     -62.135    -287.986
  C      178.916     -59.866    -287.089
  O      178.546     -61.155    -287.564
  O      180.682     -62.474    -286.876
  O      178.961     -63.391    -288.589
  H      178.288     -63.172    -289.256
  H      178.035     -59.311    -286.842
  H      179.462     -59.349    -287.850
  H      179.529     -59.969    -286.218

 6  7  8  9  10  11  12  13  14  15  16  26  30  31  32  33  35 0
 6-311+G(2d,p)
 ****
 37  38 0
 6-311+G(2d,p)
 ****
 1  2  3  4  5  17  18  19  20  21  22  23  24  25 0
 3-21G
 ****
 27  28  29  34  36  39  40  41  42  43  44  45  46 0
 3-21G
 ****


