%nproc=1
%NoSave
%Mem=1900MB
#P OB98/GEN NMR

erre ene a

0 1
  C      302.997     156.787     724.810
  O      303.479     155.459     724.804
  H      303.621     157.394     724.142
  H      303.053     157.209     725.816
  H      301.966     156.820     724.445
  P      302.727     154.365     725.701
  C      304.212     154.354     727.838
  O      303.904     153.723     726.597
  C      304.819     153.352     728.800
  O      303.833     152.409     729.286
  C      305.924     152.473     728.214
  O      307.143     153.163     728.007
  C      306.030     151.418     729.293
  O      306.731     151.945     730.424
  C      304.532     151.170     729.617
  N      303.965     150.042     728.879
  C      304.524     148.779     729.125
  O      305.441     148.661     729.929
  N      304.045     147.696     728.424
  C      303.094     147.861     727.547
  N      302.663     146.748     726.896
  C      302.499     149.174     727.253
  C      302.973     150.211     727.934
  O      301.871     153.381     724.969
  O      301.928     155.222     726.793
  H      306.300     152.789     730.660
  H      301.435     154.591     727.373
  H      301.737     149.264     726.482
  H      302.574     151.209     727.751
  H      304.386     150.994     730.686
  H      306.566     150.520     728.972
  H      305.580     151.997     727.278
  H      305.188     153.905     729.681
  H      303.093     145.858     727.119
  H      303.285     154.787     728.237
  H      301.984     146.783     726.135
  H      304.931     155.162     727.670
  P      307.929     152.878     726.621
  C      308.811     150.495     727.216
  O      309.107     151.850     726.969
  O      308.676     154.264     726.330
  O      307.040     152.454     725.485
  H      308.168     154.802     725.691
  H      309.716     149.965     727.429
  H      308.343     150.069     726.353
  H      308.149     150.421     728.053

 6  7  8  9  10  11  12  13  14  15  16  26  30  31  32  33  35 0
 6-311+G(2d,p)
 ****
 37  38 0
 6-311+G(2d,p)
 ****
 1  2  3  4  5  17  18  19  20  21  22  23  24  25 0
 3-21G
 ****
 27  28  29  34  36  39  40  41  42  43  44  45  46 0
 3-21G
 ****


