%nproc=1
%NoSave
%Mem=1900MB
#P OB98/GEN NMR

erre ene a

0 1
  C     -283.203    -100.149      13.614
  O     -283.010     -99.790      14.971
  P     -283.075    -100.976      16.055
  C     -285.048    -102.637      16.469
  O     -284.628    -101.295      16.280
  C     -286.554    -102.673      16.730
  O     -287.232    -101.730      15.874
  C     -287.201    -104.026      16.468
  O     -287.014    -104.885      17.578
  C     -288.654    -103.628      16.235
  O     -289.339    -103.422      17.485
  C     -288.504    -102.307      15.466
  N     -290.325    -100.360      11.173
  C     -290.629    -100.055      12.485
  N     -291.518     -99.055      12.680
  N     -290.110    -100.672      13.514
  C     -289.250    -101.659      13.168
  C     -288.880    -102.063      11.907
  C     -289.421    -101.337      10.780
  O     -289.109    -101.502       9.606
  N     -288.001    -103.114      11.954
  C     -287.818    -103.321      13.243
  N     -288.537    -102.452      14.021
  O     -282.623    -100.254      17.407
  O     -282.239    -102.175      15.734
  H     -290.218    -103.039      17.310
  H     -281.680    -100.428      17.593
  H     -290.744     -99.839      10.421
  H     -287.163    -104.070      13.659
  H     -289.285    -101.585      15.732
  H     -289.212    -104.400      15.696
  H     -291.975     -98.553      11.938
  H     -286.792    -104.477      15.556
  H     -291.755     -98.821      13.637
  H     -286.722    -102.360      17.767
  H     -284.523    -103.059      17.332
  H     -284.793    -103.222      15.579
  P     -287.380    -106.437      17.382
  C     -289.630    -107.338      16.457
  O     -288.974    -106.560      17.439
  O     -286.891    -107.105      18.754
  O     -286.727    -107.080      16.203
  H     -286.537    -107.996      18.574
  H     -290.543    -107.751      16.889
  H     -289.000    -108.159      16.102
  H     -289.895    -106.698      15.611
  H     -283.136     -99.275      13.001
  H     -284.169    -100.594      13.497
  H     -282.450    -100.850      13.320

 3  4  5  6  7  8  9  10  11  12  23  26  30  31 0
 6-311+G(2d,p)
 ****
 33  35  36  37  38 0
 6-311+G(2d,p)
 ****
 1  2  13  14  15  16  17  18  19  20  21  22  24  25 0
 3-21G
 ****
 27  28  29  32  34  39  40  41  42  43  44  45  46  47  48  49 0
 3-21G
 ****


