%nproc=1
%NoSave
%Mem=1900MB
#P OB98/GEN NMR

erre ene a

0 1
  C      -21.229     -22.700     -69.806
  O      -21.108     -24.083     -69.546
  H      -21.088     -22.155     -68.869
  H      -22.220     -22.466     -70.202
  H      -20.459     -22.378     -70.514
  P      -21.386     -25.111     -70.742
  C      -19.026     -25.543     -71.705
  O      -20.075     -26.023     -70.878
  C      -17.821     -26.493     -71.666
  O      -16.796     -25.989     -72.567
  C      -17.180     -26.623     -70.273
  O      -16.617     -27.938     -70.184
  C      -16.088     -25.576     -70.349
  O      -15.152     -25.729     -69.311
  C      -15.599     -25.789     -71.785
  N      -14.804     -24.675     -72.276
  C      -13.430     -24.741     -72.032
  O      -12.953     -25.696     -71.420
  N      -12.634     -23.708     -72.459
  C      -13.172     -22.670     -73.019
  N      -12.330     -21.674     -73.405
  C      -14.627     -22.534     -73.242
  C      -15.376     -23.566     -72.855
  O      -21.864     -24.507     -72.020
  O      -22.469     -26.124     -70.137
  H      -15.600     -25.759     -68.436
  H      -23.348     -25.929     -70.512
  H      -15.028     -21.640     -73.696
  H      -16.455     -23.559     -72.976
  H      -14.999     -26.705     -71.861
  H      -16.510     -24.572     -70.241
  H      -17.891     -26.461     -69.459
  H      -18.132     -27.471     -72.051
  H      -11.342     -21.804     -73.222
  H      -18.735     -24.557     -71.331
  H      -12.635     -20.813     -73.831
  H      -19.376     -25.438     -72.738
  P      -17.283     -29.116     -69.323
  C      -18.129     -30.932     -70.949
  O      -17.077     -30.511     -70.084
  O      -18.697     -28.846     -68.918
  O      -16.352     -29.259     -68.026
  H      -16.898     -29.553     -67.273
  H      -17.871     -31.871     -71.393
  H      -18.273     -30.201     -71.717
  H      -19.032     -31.040     -70.386

 6  7  8  9  10  11  12  13  14  15  16  26  30  31  32  33  35 0
 6-311+G(2d,p)
 ****
 37  38 0
 6-311+G(2d,p)
 ****
 1  2  3  4  5  17  18  19  20  21  22  23  24  25 0
 3-21G
 ****
 27  28  29  34  36  39  40  41  42  43  44  45  46 0
 3-21G
 ****


