%nproc=1
%NoSave
%Mem=1900MB
#P OB98/GEN NMR

erre ene a

0 1
  C     -389.629     987.188     -72.493
  O     -390.245     987.792     -73.604
  H     -389.447     986.128     -72.716
  H     -390.285     987.249     -71.616
  H     -388.669     987.664     -72.267
  P     -390.555     989.366     -73.485
  C     -391.763     990.868     -71.724
  O     -391.483     989.542     -72.181
  C     -392.354     990.818     -70.322
  O     -393.600     990.076     -70.350
  C     -391.479     990.098     -69.307
  O     -390.428     990.937     -68.829
  C     -392.499     989.751     -68.224
  O     -392.739     990.848     -67.339
  C     -393.759     989.458     -69.045
  N     -397.377     985.929     -69.743
  C     -397.429     987.281     -69.693
  N     -396.408     988.154     -69.516
  C     -395.237     987.501     -69.399
  C     -395.028     986.122     -69.433
  C     -396.179     985.329     -69.613
  N     -396.128     983.945     -69.623
  N     -393.693     985.829     -69.231
  C     -393.106     986.998     -69.107
  N     -393.999     988.038     -69.200
  O     -391.565     989.626     -74.706
  O     -389.357     990.262     -73.545
  H     -391.868     991.119     -66.990
  H     -391.065     989.940     -75.482
  H     -398.413     987.725     -69.800
  H     -392.045     987.155     -68.929
  H     -394.656     989.895     -68.597
  H     -392.155     988.902     -67.617
  H     -391.059     989.175     -69.726
  H     -392.579     991.840     -70.005
  H     -392.487     991.332     -72.405
  H     -390.828     991.450     -71.736
  H     -396.988     983.442     -69.740
  H     -395.252     983.486     -69.422
  P     -389.056     990.250     -68.368
  C     -387.773     989.931     -66.114
  O     -388.938     990.419     -66.781
  O     -387.927     991.244     -68.935
  O     -388.854     988.850     -68.860
  H     -387.556     990.893     -69.754
  H     -387.856     990.123     -65.065
  H     -386.907     990.427     -66.500
  H     -387.683     988.877     -66.277

 6  7  8  9  10  11  12  13  14  15  25  28  32  33  34  35 0
 6-311+G(2d,p)
 ****
 36  37  40 0
 6-311+G(2d,p)
 ****
 1  2  3  4  5  16  17  18  19  20  21  22  23  24 0
 3-21G
 ****
 26  27  29  30  31  38  39 41  42  43  44  45  46  47  48 0
 3-21G
 ****


