%nproc=1
%NoSave
%Mem=1900MB
#P OB98/GEN NMR

erre ene a

0 1
  C     -170.234      40.273    -220.619
  O     -169.304      39.362    -220.072
  H     -170.703      40.826    -219.800
  H     -171.010      39.725    -221.162
  H     -169.746      40.984    -221.289
  P     -168.227      38.683    -221.044
  C     -169.376      36.371    -221.191
  O     -168.995      37.552    -221.889
  C     -169.249      35.135    -222.090
  O     -169.632      33.956    -221.340
  C     -170.205      35.235    -223.278
  O     -169.722      34.534    -224.422
  C     -171.460      34.548    -222.767
  O     -172.311      34.081    -223.810
  C     -170.851      33.436    -221.906
  N     -174.067      29.823    -220.307
  C     -173.468      29.970    -221.540
  N     -173.784      29.048    -222.481
  N     -172.646      30.946    -221.833
  C     -172.481      31.838    -220.822
  C     -173.040      31.806    -219.565
  C     -173.917      30.700    -219.240
  O     -174.489      30.528    -218.167
  N     -172.652      32.895    -218.820
  C     -171.867      33.580    -219.622
  N     -171.720      32.973    -220.848
  O     -167.314      37.816    -220.052
  O     -167.404      39.630    -221.861
  H     -171.771      33.529    -224.408
  H     -166.429      37.678    -220.437
  H     -174.681      29.041    -220.131
  H     -171.378      34.516    -219.368
  H     -170.594      32.567    -222.530
  H     -172.039      35.271    -222.179
  H     -174.535      28.390    -222.358
  H     -170.405      36.275    -223.559
  H     -173.590      29.304    -223.453
  H     -168.205      34.995    -222.394
  H     -170.419      36.502    -220.879
  H     -168.772      36.258    -220.287
  P     -169.765      35.293    -225.834
  C     -172.340      35.164    -226.310
  O     -171.216      35.960    -225.993
  O     -169.758      34.106    -226.902
  O     -168.625      36.241    -226.041
  H     -168.881      34.033    -227.324
  H     -173.210      35.784    -226.373
  H     -172.482      34.427    -225.547
  H     -172.180      34.678    -227.250

 6  7  8  9  10  11  12  13  14  15  26  29  33  34 0
 6-311+G(2d,p)
 ****
 36  38  39  40  41 0
 6-311+G(2d,p)
 ****
 1  2  3  4  5  16  17  18  19  20  21  22  23  24  25 0
 3-21G
 ****
 27  28  30  31  32  35  37  42  43  44  45  46  47 0
 3-21G
 ****
 48  49 0
 3-21G
 ****


