%nproc=1
%NoSave
%Mem=1900MB
#P OB98/GEN NMR

erre ene a

0 1
  C      -55.721    -198.075     741.185
  O      -54.719    -197.928     740.194
  H      -55.324    -198.689     741.996
  H      -56.598    -198.576     740.762
  H      -56.001    -197.098     741.582
  P      -55.119    -197.088     738.886
  C      -57.039    -197.275     737.159
  O      -56.442    -197.810     738.333
  C      -57.380    -198.395     736.181
  O      -58.326    -199.301     736.769
  C      -58.015    -197.915     734.878
  O      -57.013    -197.498     733.963
  C      -58.702    -199.185     734.402
  O      -57.744    -200.044     733.759
  C      -59.183    -199.819     735.720
  N      -63.798    -201.898     736.572
  C      -62.660    -202.421     736.063
  N      -61.486    -201.796     735.815
  C      -61.555    -200.504     736.158
  C      -62.649    -199.829     736.689
  C      -63.815    -200.589     736.903
  N      -64.977    -200.054     737.421
  N      -62.353    -198.502     736.907
  C      -61.084    -198.389     736.575
  N      -60.566    -199.561     736.081
  O      -54.023    -196.867     737.899
  O      -55.711    -195.754     739.553
  H      -57.322    -199.514     733.058
  H      -56.249    -195.973     740.334
  H      -62.694    -203.479     735.824
  H      -60.487    -197.485     736.694
  H      -59.066    -200.911     735.711
  H      -59.492    -198.985     733.674
  H      -58.768    -197.137     735.052
  H      -56.466    -198.960     735.977
  H      -56.362    -196.557     736.685
  H      -65.806    -200.619     737.361
  H      -65.019    -199.051     737.540
  H      -57.946    -196.740     737.464
  P      -57.376    -196.586     732.692
  C      -58.816    -196.935     730.593
  O      -58.482    -197.422     731.889
  O      -56.196    -196.140     731.897
  O      -58.212    -195.369     733.302
  H      -58.250    -194.633     732.663
  H      -59.559    -197.568     730.155
  H      -57.941    -196.932     729.977
  H      -59.198    -195.939     730.674

 6  7  8  9  10  11  12  13  14  15  25  28  32  33  34  35 0
 6-311+G(2d,p)
 ****
 36  39  40 0
 6-311+G(2d,p)
 ****
 1  2  3  4  5  16  17  18  19  20  21  22  23  24 0
 3-21G
 ****
 26  27  29  30  31  37  38  41  42  43  44  45  46  47 0
 3-21G
 ****
 48 0
 3-21G
 ****


