%nproc=1
%NoSave
%Mem=1900MB
#P OB98/GEN NMR

erre ene a

0 1
  C      105.711     321.365     167.958
  O      104.611     321.226     168.829
  P      104.546     322.052     170.202
  C      102.659     323.110     171.599
  O      103.043     322.606     170.322
  C      101.176     322.850     171.840
  O      100.351     323.633     170.936
  C      100.746     321.413     171.585
  O      101.263     320.418     172.442
  C       99.236     321.559     171.518
  O       98.661     321.605     172.826
  C       99.088     322.932     170.815
  N       98.681     322.788     169.421
  C       97.441     322.197     169.207
  O       96.704     321.810     170.114
  N       97.073     322.033     167.895
  C       97.829     322.352     166.807
  O       97.456     322.137     165.659
  C       99.139     322.959     167.096
  C       99.500     323.146     168.368
  O      105.604     323.087     170.371
  O      104.575     320.907     171.322
  H       98.782     320.724     173.232
  H      103.836     320.272     171.271
  H       96.183     321.595     167.720
  H       99.758     323.235     166.253
  H      100.462     323.589     168.606
  H       98.340     323.544     171.330
  H       98.767     320.723     170.991
  H      101.083     321.131     170.578
  H      100.934     323.169     172.858
  H      102.839     324.192     171.621
  H      103.278     322.652     172.376
  P      101.025     318.850     172.219
  C      102.203     316.725     173.120
  O      102.335     318.066     172.707
  O      100.421     318.443     170.914
  O       99.987     318.513     173.400
  H       99.403     317.786     173.110
  H      103.183     316.365     173.453
  H      101.871     316.097     172.283
  H      101.499     316.646     173.952
  H      105.570     320.737     167.103
  H      106.607     321.079     168.467
  H      105.790     322.385     167.643

 3  4  5  6  7  8  9  10  11  12  13  23  28  29  30  31  32 0
 6-311+G(2d,p)
 ****
 33  34 0
 6-311+G(2d,p)
 ****
 1  2  14  15  16  17  18  19  20  21  22  24  25  26  27 0
 3-21G
 ****
 35  36  37  38  39  40  41  42  43  44  45 0
 3-21G
 ****


