%nproc=1
%NoSave
%Mem=1900MB
#P OB98/GEN NMR

erre ene a

0 1
  C     -102.568    1170.655    -457.276
  O     -103.157    1170.008    -456.161
  H     -102.230    1171.641    -456.966
  H     -103.306    1170.766    -458.076
  H     -101.700    1170.088    -457.646
  P     -103.602    1168.473    -456.303
  C     -106.110    1169.042    -456.243
  O     -105.045    1168.328    -455.626
  C     -107.439    1168.350    -455.922
  O     -107.544    1167.098    -456.634
  C     -107.614    1168.001    -454.443
  O     -107.942    1169.149    -453.682
  C     -108.712    1166.947    -454.516
  O     -110.008    1167.571    -454.639
  C     -108.341    1166.198    -455.823
  N     -107.621    1164.955    -455.559
  C     -108.391    1163.788    -455.496
  O     -109.614    1163.792    -455.623
  N     -107.700    1162.629    -455.269
  C     -106.367    1162.521    -454.987
  O     -105.821    1161.470    -454.696
  C     -105.613    1163.787    -455.027
  C     -106.264    1164.916    -455.322
  O     -102.593    1167.469    -455.856
  O     -103.920    1168.319    -457.872
  H     -110.031    1168.289    -453.973
  H     -103.198    1167.831    -458.307
  H     -108.259    1161.772    -455.217
  H     -104.545    1163.733    -454.826
  H     -105.715    1165.848    -455.350
  H     -109.241    1165.969    -456.403
  H     -108.749    1166.312    -453.638
  H     -106.700    1167.529    -454.061
  H     -108.272    1168.992    -456.266
  H     -105.957    1169.034    -457.329
  H     -106.116    1170.076    -455.880
  P     -107.132    1169.477    -452.344
  C     -109.044    1169.427    -450.625
  O     -108.116    1170.242    -451.346
  O     -105.787    1170.132    -452.547
  O     -106.946    1168.047    -451.643
  H     -105.990    1167.835    -451.552
  H     -109.646    1170.046    -449.993
  H     -108.508    1168.720    -450.027
  H     -109.672    1168.905    -451.316

 6  7  8  9  10  11  12  13  14  15  16  26  31  32  33  34  35 0
 6-311+G(2d,p)
 ****
 36  37 0
 6-311+G(2d,p)
 ****
 1  2  3  4  5  17  18  19  20  21  22  23  24  25 0
 3-21G
 ****
 27  28  29  30  38  39  40  41  42  43  44  45 0
 3-21G
 ****


