%nproc=1
%NoSave
%Mem=1900MB
#P OB98/GEN NMR

erre ene a

0 1
  C     -213.947     154.380     193.995
  O     -214.504     155.678     193.964
  P     -213.876     156.843     193.060
  C     -215.874     156.668     191.446
  O     -214.461     156.609     191.579
  C     -216.311     157.947     190.727
  O     -215.615     158.051     189.454
  C     -217.815     158.034     190.442
  O     -218.167     159.417     190.543
  C     -217.901     157.569     189.001
  O     -219.112     157.964     188.366
  C     -216.618     158.178     188.423
  N     -216.213     157.532     187.180
  C     -216.585     158.167     185.992
  O     -217.290     159.179     186.023
  N     -216.202     157.614     184.795
  C     -215.592     156.471     184.790
  N     -215.231     155.972     183.575
  C     -215.292     155.705     186.014
  C     -215.615     156.296     187.161
  O     -212.393     156.973     193.133
  O     -214.658     158.154     193.535
  H     -219.057     157.718     187.416
  H     -214.298     158.474     194.401
  H     -214.834     154.730     185.953
  H     -215.434     155.813     188.113
  H     -216.755     159.251     188.227
  H     -217.849     156.472     188.962
  H     -218.427     157.430     191.114
  H     -215.998     158.802     191.339
  H     -215.441     156.537     182.761
  H     -216.309     156.665     192.450
  H     -214.679     155.135     183.463
  H     -216.239     155.781     190.920
  P     -219.644     159.875     190.966
  C     -219.155     159.275     193.405
  O     -220.016     159.075     192.301
  O     -220.663     159.794     189.878
  O     -219.459     161.381     191.485
  H     -220.329     161.819     191.523
  H     -219.650     158.920     194.315
  H     -218.911     160.336     193.524
  H     -218.231     158.706     193.257
  H     -214.517     153.763     194.658
  H     -212.935     154.434     194.339
  H     -213.967     153.960     193.011

 3  4  5  6  7  8  9  10  11  12  13  23  27  28  29  30  32 0
 6-311+G(2d,p)
 ****
 34  35 0
 6-311+G(2d,p)
 ****
 1  2  14  15  16  17  18  19  20  21  22  24  25  26 0
 3-21G
 ****
 31  33  36  37  38  39  40  41  42  43  44  45  46 0
 3-21G
 ****


