%nproc=1
%NoSave
%Mem=1900MB
#P OB98/GEN NMR

erre ene a

0 1
  C     -852.694    2025.471    1417.612
  O     -852.066    2024.359    1417.011
  H     -853.244    2025.127    1418.489
  H     -853.386    2025.933    1416.921
  H     -851.951    2026.214    1417.930
  P     -851.285    2024.635    1415.622
  C     -852.066    2022.986    1413.769
  O     -851.260    2023.189    1414.909
  C     -851.786    2021.586    1413.158
  O     -850.443    2021.535    1412.627
  C     -851.854    2020.469    1414.194
  O     -853.193    2020.069    1414.505
  C     -851.123    2019.355    1413.421
  O     -852.001    2018.850    1412.361
  C     -849.966    2020.182    1412.826
  N     -848.749    2020.193    1413.686
  C     -848.062    2018.990    1413.814
  O     -848.441    2017.952    1413.206
  N     -846.962    2018.921    1414.610
  C     -846.597    2019.995    1415.252
  N     -845.490    2019.880    1416.039
  C     -847.255    2021.312    1415.167
  C     -848.331    2021.330    1414.344
  O     -849.768    2024.850    1416.084
  O     -851.848    2025.749    1414.789
  H     -852.827    2018.617    1412.806
  H     -849.177    2024.885    1415.282
  H     -846.931    2022.147    1415.708
  H     -848.911    2022.224    1414.245
  H     -849.686    2019.803    1411.834
  H     -850.818    2018.518    1414.020
  H     -851.277    2020.662    1415.085
  H     -852.484    2021.444    1412.341
  H     -845.071    2018.962    1416.144
  H     -851.847    2023.760    1413.029
  H     -845.169    2020.619    1416.705
  H     -853.132    2023.046    1414.048
  P     -853.511    2019.770    1416.049
  C     -854.939    2017.615    1415.615
  O     -854.901    2018.947    1416.078
  O     -853.917    2021.207    1416.615
  O     -852.399    2019.128    1416.853
  H     -853.625    2021.323    1417.551
  H     -855.934    2017.233    1415.709
  H     -854.270    2017.016    1416.197
  H     -854.641    2017.586    1414.588

 6  7  8  9  10  11  12  13  14  15  16  26  30  31  32  33  35 0
 6-311+G(2d,p)
 ****
 37  38 0
 6-311+G(2d,p)
 ****
 1  2  3  4  5  17  18  19  20  21  22  23  24  25 0
 3-21G
 ****
 27  28  29  34  36  39  40  41  42  43  44  45  46 0
 3-21G
 ****


