%nproc=1
%NoSave
%Mem=1900MB
#P OB98/GEN NMR

erre ene a

0 1
  C      -72.244      46.731     214.263
  O      -72.656      46.424     212.946
  H      -71.242      47.163     214.226
  H      -72.212      45.819     214.863
  H      -72.925      47.455     214.718
  P      -74.147      45.860     212.765
  C      -75.335      43.608     213.260
  O      -74.148      44.377     213.388
  C      -75.352      42.468     214.276
  O      -74.396      41.448     213.859
  C      -74.978      42.890     215.706
  O      -75.752      42.101     216.618
  C      -73.525      42.455     215.819
  O      -73.107      42.289     217.171
  C      -73.568      41.162     215.002
  N      -69.843      37.987     216.170
  C      -71.091      38.154     216.739
  N      -71.396      37.353     217.782
  N      -71.963      39.032     216.324
  C      -71.539      39.743     215.251
  C      -70.330      39.678     214.601
  C      -69.360      38.719     215.089
  O      -68.232      38.539     214.638
  N      -70.272      40.589     213.574
  C      -71.442      41.201     213.604
  N      -72.245      40.722     214.604
  O      -74.237      45.607     211.187
  O      -75.235      46.758     213.252
  H      -72.242      41.826     217.163
  H      -74.621      46.386     210.742
  H      -69.203      37.305     216.537
  H      -71.755      41.991     212.935
  H      -74.024      40.333     215.559
  H      -72.870      43.196     215.345
  H      -70.793      36.623     218.127
  H      -75.127      43.954     215.918
  H      -72.322      37.430     218.185
  H      -76.343      41.997     214.256
  H      -75.379      43.188     212.249
  H      -76.204      44.258     213.413
  P      -77.256      42.560     216.922
  C      -78.433      44.301     218.454
  O      -77.209      43.753     217.991
  O      -77.834      41.339     217.783
  O      -78.079      42.813     215.701
  H      -78.800      41.275     217.663
  H      -78.231      45.082     219.157
  H      -79.010      43.535     218.928
  H      -78.981      44.700     217.626

 6  7  8  9  10  11  12  13  14  15  26  29  33  34 0
 6-311+G(2d,p)
 ****
 36  38  39  40  41 0
 6-311+G(2d,p)
 ****
 1  2  3  4  5  16  17  18  19  20  21  22  23  24  25 0
 3-21G
 ****
 27  28  30  31  32  35  37  42  43  44  45  46  47 0
 3-21G
 ****
 48  49 0
 3-21G
 ****


