%nproc=1
%NoSave
%Mem=1900MB
#P OB98/GEN NMR

erre ene a

0 1
  C     -120.709    -226.618     306.872
  O     -121.736    -226.780     305.911
  H     -120.662    -227.520     307.489
  H     -120.935    -225.762     307.515
  H     -119.742    -226.473     306.379
  P     -121.855    -225.641     304.785
  C     -124.469    -225.657     304.508
  O     -123.197    -225.977     303.972
  C     -125.503    -226.713     304.115
  O     -125.295    -227.896     304.930
  C     -126.953    -226.260     304.312
  O     -127.749    -226.827     303.270
  C     -127.341    -226.894     305.639
  O     -128.750    -227.045     305.770
  C     -126.540    -228.207     305.590
  N     -126.319    -228.775     306.920
  C     -127.410    -229.415     307.518
  O     -128.496    -229.465     306.935
  N     -127.261    -229.940     308.776
  C     -126.143    -229.786     309.410
  N     -126.067    -230.309     310.665
  C     -124.979    -229.081     308.836
  C     -125.131    -228.615     307.596
  O     -120.686    -226.054     303.775
  O     -121.758    -224.246     305.305
  H     -129.176    -226.183     305.572
  H     -120.656    -227.007     303.585
  H     -124.070    -228.968     309.410
  H     -124.326    -228.092     307.094
  H     -127.065    -228.953     304.980
  H     -126.991    -226.269     306.470
  H     -127.062    -225.173     304.311
  H     -125.321    -227.009     303.075
  H     -126.897    -230.766     311.029
  H     -124.799    -224.677     304.149
  H     -125.266    -230.201     311.270
  H     -124.374    -225.605     305.600
  P     -128.892    -225.939     302.579
  C     -130.954    -227.319     303.319
  O     -130.151    -226.872     302.230
  O     -128.441    -225.046     301.475
  O     -129.448    -225.066     303.811
  H     -129.607    -224.159     303.485
  H     -131.752    -227.927     302.948
  H     -131.360    -226.473     303.833
  H     -130.353    -227.892     303.994

 6  7  8  9  10  11  12  13  14  15  16  26  30  31  32  33  35 0
 6-311+G(2d,p)
 ****
 37  38 0
 6-311+G(2d,p)
 ****
 1  2  3  4  5  17  18  19  20  21  22  23  24  25 0
 3-21G
 ****
 27  28  29  34  36  39  40  41  42  43  44  45  46 0
 3-21G
 ****


