%nproc=1
%NoSave
%Mem=1900MB
#P OB98/GEN NMR

erre ene a

0 1
  C       16.179    -149.140       2.082
  O       15.539    -148.391       3.113
  P       15.891    -148.709       4.645
  C       14.004    -150.454       4.698
  O       15.368    -150.187       4.998
  C       13.473    -151.690       5.442
  O       14.335    -152.839       5.219
  C       13.342    -151.505       6.962
  O       12.183    -152.238       7.373
  C       14.607    -152.162       7.475
  O       14.525    -152.491       8.855
  C       14.712    -153.350       6.515
  N       16.041    -153.937       6.493
  C       16.351    -154.849       7.501
  O       15.555    -155.054       8.416
  N       17.572    -155.486       7.461
  C       18.455    -155.121       6.579
  N       19.640    -155.788       6.560
  C       18.224    -154.031       5.612
  C       17.003    -153.509       5.611
  O       15.508    -147.653       5.625
  O       17.485    -148.903       4.608
  H       13.798    -153.138       8.984
  H       17.866    -148.568       5.444
  H       19.016    -153.709       4.953
  H       16.732    -152.706       4.935
  H       13.989    -154.131       6.778
  H       15.458    -151.483       7.339
  H       13.231    -150.458       7.265
  H       12.488    -151.936       5.018
  H       19.791    -156.516       7.242
  H       13.900    -150.612       3.621
  H       20.358    -155.599       5.870
  H       13.405    -149.564       4.934
  P       10.781    -151.464       7.511
  C       11.287    -150.528       9.885
  O       10.989    -150.246       8.532
  O        9.926    -152.499       8.397
  O       10.066    -151.172       6.234
  H        8.976    -152.348       8.225
  H       11.669    -149.616      10.355
  H       12.052    -151.305       9.969
  H       10.378    -150.842      10.406
  H       15.832    -148.802       1.128
  H       15.947    -150.178       2.199
  H       17.238    -149.002       2.146

 3  4  5  6  7  8  9  10  11  12  13  23  27  28  29  30  32 0
 6-311+G(2d,p)
 ****
 34  35 0
 6-311+G(2d,p)
 ****
 1  2  14  15  16  17  18  19  20  21  22  24  25  26 0
 3-21G
 ****
 31  33  36  37  38  39  40  41  42  43  44  45  46 0
 3-21G
 ****


