%nproc=1
%NoSave
%Mem=1900MB
#P OB98/GEN NMR

erre ene a

0 1
  C     -238.885      82.063     621.951
  O     -238.040      81.985     620.832
  H     -238.305      82.409     622.813
  H     -239.292      81.075     622.182
  H     -239.705      82.775     621.771
  P     -238.676      81.776     619.372
  C     -239.197      79.745     617.864
  O     -238.705      80.190     619.127
  C     -238.603      78.371     617.525
  O     -237.201      78.555     617.176
  C     -238.663      77.372     618.706
  O     -238.863      76.056     618.176
  C     -237.266      77.492     619.281
  O     -236.917      76.387     620.073
  C     -236.438      77.651     618.009
  N     -235.102      78.165     618.302
  C     -234.074      77.220     618.423
  O     -234.256      76.009     618.301
  N     -232.848      77.711     618.754
  C     -232.564      79.006     619.087
  O     -231.454      79.385     619.446
  C     -233.694      79.947     618.987
  C     -234.890      79.501     618.606
  O     -238.059      82.569     618.266
  O     -240.230      82.114     619.575
  H     -236.108      76.573     620.585
  H     -240.640      82.341     618.718
  H     -232.092      77.044     618.831
  H     -233.509      80.983     619.251
  H     -235.745      80.158     618.540
  H     -236.358      76.706     617.471
  H     -237.197      78.388     619.908
  H     -239.455      77.604     619.429
  H     -239.110      77.966     616.646
  H     -238.900      80.475     617.106
  H     -240.291      79.681     617.898
  P     -240.205      75.221     618.456
  C     -241.187      73.528     620.114
  O     -240.042      74.278     619.754
  O     -240.748      74.495     617.250
  O     -241.267      76.333     618.931
  H     -242.117      76.181     618.464
  H     -240.971      72.941     620.982
  H     -241.459      72.882     619.306
  H     -241.997      74.194     620.326

 6  7  8  9  10  11  12  13  14  15  16  26  31  32  33  34  35 0
 6-311+G(2d,p)
 ****
 36  37 0
 6-311+G(2d,p)
 ****
 1  2  3  4  5  17  18  19  20  21  22  23  24  25 0
 3-21G
 ****
 27  28  29  30  38  39  40  41  42  43  44  45 0
 3-21G
 ****


