%nproc=1
%NoSave
%Mem=1900MB
#P OB98/GEN NMR

erre ene a

0 1
  C     -294.401    -244.777     251.018
  O     -295.209    -245.559     251.904
  P     -296.733    -245.146     252.195
  C     -296.693    -245.579     254.717
  O     -297.262    -245.969     253.473
  C     -296.604    -246.728     255.735
  O     -297.828    -247.506     255.744
  C     -295.447    -247.706     255.502
  O     -295.039    -248.146     256.799
  C     -296.128    -248.833     254.740
  O     -295.386    -250.045     254.767
  C     -297.497    -248.872     255.436
  N     -298.518    -249.513     254.617
  C     -299.092    -250.685     255.112
  O     -298.690    -251.168     256.169
  N     -300.071    -251.306     254.375
  C     -300.375    -250.852     253.202
  N     -301.333    -251.524     252.510
  C     -299.734    -249.662     252.599
  C     -298.835    -249.045     253.359
  O     -297.635    -245.197     251.006
  O     -296.622    -243.643     252.752
  H     -295.897    -250.726     254.279
  H     -297.433    -243.152     252.513
  H     -300.005    -249.333     251.607
  H     -298.313    -248.165     253.012
  H     -297.425    -249.419     256.388
  H     -296.250    -248.543     253.683
  H     -294.613    -247.270     254.949
  H     -296.511    -246.278     256.729
  H     -301.728    -252.350     252.944
  H     -297.297    -244.774     255.142
  H     -301.565    -251.324     251.546
  H     -295.692    -245.169     254.539
  P     -293.602    -247.782     257.403
  C     -292.552    -250.119     257.346
  O     -293.076    -249.090     258.165
  O     -293.556    -246.530     258.213
  O     -292.632    -247.689     256.124
  H     -291.826    -247.206     256.377
  H     -292.038    -250.849     257.977
  H     -291.839    -249.710     256.621
  H     -293.368    -250.621     256.814
  H     -293.424    -245.208     250.953
  H     -294.326    -243.777     251.392
  H     -294.849    -244.761     250.047

 3  4  5  6  7  8  9  10  11  12  13  23  27  28  29  30  32 0
 6-311+G(2d,p)
 ****
 34  35 0
 6-311+G(2d,p)
 ****
 1  2  14  15  16  17  18  19  20  21  22  24  25  26 0
 3-21G
 ****
 31  33  36  37  38  39  40  41  42  43  44  45  46 0
 3-21G
 ****


