%nproc=1
%NoSave
%Mem=1900MB
#P OB98/GEN NMR

erre ene a

0 1
  C     -135.199    -586.895    -960.016
  O     -134.139    -587.676    -960.550
  P     -133.517    -588.824    -959.611
  C     -135.390    -590.526    -960.215
  O     -134.001    -590.216    -960.249
  C     -135.768    -591.427    -961.380
  O     -135.723    -590.674    -962.613
  C     -134.834    -592.612    -961.587
  O     -135.136    -593.686    -960.709
  C     -135.166    -592.996    -963.028
  O     -136.359    -593.791    -963.062
  C     -135.420    -591.613    -963.676
  N     -132.650    -592.121    -967.888
  C     -133.760    -592.828    -967.472
  N     -134.218    -593.779    -968.307
  N     -134.370    -592.606    -966.335
  C     -133.828    -591.600    -965.614
  C     -132.725    -590.828    -965.923
  C     -132.025    -591.110    -967.165
  O     -131.000    -590.566    -967.552
  N     -132.489    -589.884    -964.953
  C     -133.466    -590.062    -964.083
  N     -134.289    -591.103    -964.428
  O     -134.401    -588.714    -958.276
  O     -132.057    -588.691    -959.328
  H     -136.260    -594.481    -962.385
  H     -133.890    -589.052    -957.512
  H     -132.227    -592.309    -968.777
  H     -133.606    -589.453    -963.200
  H     -136.286    -591.644    -964.342
  H     -134.371    -593.577    -963.508
  H     -133.875    -593.901    -969.251
  H     -133.783    -592.310    -961.512
  H     -135.050    -594.277    -968.035
  H     -136.795    -591.766    -961.225
  H     -135.961    -589.590    -960.284
  H     -135.612    -591.006    -959.257
  P     -133.905    -594.615    -960.251
  C     -134.142    -593.908    -957.769
  O     -134.170    -594.950    -958.713
  O     -132.676    -593.592    -960.220
  O     -133.646    -595.773    -961.156
  H     -131.833    -594.064    -960.365
  H     -134.553    -592.978    -958.173
  H     -133.106    -593.731    -957.448
  H     -134.734    -594.195    -956.898
  H     -135.513    -586.176    -960.743
  H     -134.861    -586.388    -959.136
  H     -136.021    -587.533    -959.766

 3  4  5  6  7  8  9  10  11  12  23  26  30  31  33  0
 6-311+G(2d,p)
 ****
 35  36  37  38 0
 6-311+G(2d,p)
 ****
 1  2  13  14  15  16  17  18  19  20  21  22  24  25  27  28  29 0
 3-21G
 ****
 32  34  39  40  41  42  43  44  45  46  47  48  49 0
 3-21G
 ****


