%nproc=1
%NoSave
%Mem=1900MB
#P OB98/GEN NMR

erre ene a

0 1
  C       98.555     108.197    -305.779
  O       98.454     108.851    -307.027
  H       99.591     108.262    -305.434
  H       98.285     107.144    -305.884
  H       97.907     108.679    -305.044
  P       97.000     108.897    -307.714
  C       96.908     106.857    -309.327
  O       96.637     107.362    -308.025
  C       95.899     105.765    -309.696
  O       96.032     104.664    -308.766
  C       94.444     106.245    -309.650
  O       93.744     105.731    -310.788
  C       93.897     105.647    -308.367
  O       92.483     105.458    -308.416
  C       94.728     104.363    -308.230
  N       94.814     103.919    -306.841
  C       93.795     103.076    -306.381
  O       92.871     102.755    -307.135
  N       93.810     102.663    -305.073
  C       94.732     103.101    -304.274
  N       94.681     102.672    -302.983
  C       95.799     104.029    -304.698
  C       95.786     104.388    -305.981
  O       97.306     109.515    -309.157
  O       95.958     109.640    -306.944
  H       92.279     104.901    -309.197
  H       96.477     109.799    -309.612
  H       96.536     104.380    -303.989
  H       96.530     105.068    -306.382
  H       94.293     103.555    -308.831
  H       94.115     106.318    -307.531
  H       94.353     107.328    -309.642
  H       96.157     105.374    -310.687
  H       93.928     102.045    -302.724
  H       97.919     106.443    -309.345
  H       95.329     102.971    -302.268
  H       96.838     107.676    -310.051
  P       93.264     106.819    -311.868
  C       90.814     107.072    -311.054
  O       92.088     107.685    -311.193
  O       92.510     105.941    -312.973
  O       94.382     107.626    -312.443
  H       93.094     105.779    -313.734
  H       90.136     107.759    -310.593
  H       90.904     106.197    -310.445
  H       90.443     106.798    -312.019

 6  7  8  9  10  11  12  13  14  15  16  26  30  31  32  33  35 0
 6-311+G(2d,p)
 ****
 37  38 0
 6-311+G(2d,p)
 ****
 1  2  3  4  5  17  18  19  20  21  22  23  24  25 0
 3-21G
 ****
 27  28  29  34  36  39  40  41  42  43  44  45  46 0
 3-21G
 ****


