%nproc=1
%NoSave
%Mem=1900MB
#P OB98/GEN NMR

erre ene a

0 1
  C     -510.358     -13.244     144.859
  O     -509.576     -12.589     145.838
  H     -509.782     -14.088     144.458
  H     -510.601     -12.562     144.039
  H     -511.281     -13.628     145.312
  P     -510.231     -11.296     146.528
  C     -508.425     -10.027     145.189
  O     -509.794     -10.076     145.577
  C     -508.159      -8.814     144.295
  O     -508.513      -7.615     145.031
  C     -506.692      -8.684     143.867
  O     -506.638      -8.217     142.517
  C     -506.139      -7.617     144.800
  O     -505.024      -6.932     144.243
  C     -507.376      -6.736     145.020
  N     -505.603      -2.484     147.223
  C     -505.655      -2.878     145.929
  N     -506.160      -4.028     145.429
  C     -506.688      -4.782     146.410
  C     -506.705      -4.515     147.770
  C     -506.121      -3.304     148.172
  N     -506.046      -2.904     149.487
  N     -507.307      -5.556     148.460
  C     -507.651      -6.424     147.529
  N     -507.288      -6.014     146.277
  O     -509.930     -11.117     147.975
  O     -511.775     -11.483     146.162
  H     -504.267      -7.552     144.202
  H     -511.896     -11.758     145.236
  H     -505.228      -2.188     145.206
  H     -508.154      -7.369     147.714
  H     -507.513      -5.994     144.226
  H     -505.825      -8.086     145.739
  H     -506.145      -9.624     143.956
  H     -508.830      -8.862     143.422
  H     -508.156     -10.945     144.655
  H     -505.615      -2.004     149.686
  H     -506.436      -3.486     150.209
  H     -507.820      -9.971     146.101
  P     -506.665      -9.298     141.331
  C     -504.121      -9.277     140.848
  O     -505.245     -10.044     141.289
  O     -507.178      -8.812     140.014
  O     -507.632     -10.443     141.927
  H     -508.180     -10.800     141.211
  H     -503.243      -9.888     140.867
  H     -503.985      -8.437     141.497
  H     -504.294      -8.932     139.850

 6  7  8  9  10  11  12  13  14  15  25  28  32  33  34  35 0
 6-311+G(2d,p)
 ****
 36  39  40 0
 6-311+G(2d,p)
 ****
 1  2  3  4  5  16  17  18  19  20  21  22  23  24 0
 3-21G
 ****
 26  27  29  30  31  37  38  41  42  43  44  45  46  47 0
 3-21G
 ****
 48 0
 3-21G
 ****


