%nproc=1
%NoSave
%Mem=1900MB
#P OB98/GEN NMR

erre ene a

0 1
  C      -25.270     279.125     438.089
  O      -25.797     277.808     438.280
  P      -25.483     277.044     439.660
  C      -23.418     275.700     438.900
  O      -23.911     276.742     439.735
  C      -21.869     275.687     438.891
  O      -21.352     275.589     440.252
  C      -21.304     274.506     438.099
  O      -20.058     274.881     437.467
  C      -20.981     273.498     439.184
  O      -20.018     272.533     438.739
  C      -20.497     274.427     440.304
  N      -18.049     271.416     443.653
  C      -17.684     271.912     442.449
  N      -18.373     272.735     441.631
  C      -19.566     273.030     442.168
  C      -20.090     272.597     443.376
  C      -19.268     271.750     444.138
  N      -19.672     271.211     445.348
  N      -21.348     273.125     443.581
  C      -21.611     273.803     442.502
  N      -20.563     273.808     441.610
  O      -26.360     275.878     439.970
  O      -25.666     278.203     440.755
  H      -19.980     271.829     439.433
  H      -26.141     277.835     441.537
  H      -16.695     271.615     442.114
  H      -22.554     274.306     442.277
  H      -19.472     274.763     440.138
  H      -21.903     272.958     439.465
  H      -21.980     274.097     437.332
  H      -21.520     276.642     438.488
  H      -23.795     275.828     437.887
  H      -19.067     270.520     445.768
  H      -20.621     271.349     445.657
  H      -23.816     274.744     439.247
  P      -20.124     275.050     435.868
  C      -20.191     272.496     435.277
  O      -20.855     273.748     435.303
  O      -18.795     275.366     435.252
  O      -21.195     276.231     435.694
  H      -22.029     276.085     436.188
  H      -20.922     271.721     434.992
  H      -19.801     272.261     436.271
  H      -19.380     272.523     434.552
  H      -25.566     279.492     437.128
  H      -24.202     279.093     438.145
  H      -25.648     279.774     438.851

 3  4  5  6  7  8  9  10  11  12  22  25  29  30  31  32 0
 6-311+G(2d,p)
 ****
 33  36  37 0
 6-311+G(2d,p)
 ****
 1  2  13  14  15  16  17  18  19  20  21  23  24  26 0
 3-21G
 ****
 27  28  34  35  38  39  40  41  42  43  44  45  46  47  48 0
 3-21G
 ****


