%nproc=1
%NoSave
%Mem=1900MB
#P OB98/GEN NMR

erre ene a

0 1
  C     -384.005     928.579     462.906
  O     -384.841     928.271     464.003
  P     -385.395     926.796     464.209
  C     -385.376     927.515     466.682
  O     -385.973     926.676     465.713
  C     -386.307     927.695     467.891
  O     -386.845     926.427     468.304
  C     -385.613     928.256     469.129
  O     -385.323     929.641     469.001
  C     -386.653     927.912     470.195
  O     -387.718     928.878     470.208
  C     -387.167     926.530     469.718
  N     -386.601     925.435     470.482
  C     -387.135     925.270     471.769
  O     -387.934     926.070     472.216
  N     -386.698     924.191     472.515
  C     -385.743     923.433     472.060
  N     -385.391     922.340     472.808
  C     -385.053     923.670     470.765
  C     -385.554     924.672     470.041
  O     -384.465     925.692     463.809
  O     -386.713     926.750     463.324
  H     -386.674     925.949     462.735
  H     -388.435     928.509     470.774
  H     -384.220     923.034     470.467
  H     -385.129     924.901     469.057
  H     -388.263     926.496     469.778
  H     -386.208     927.897     471.194
  H     -384.704     927.694     469.317
  H     -387.151     928.349     467.587
  H     -385.919     922.190     473.698
  H     -385.161     928.490     466.245
  H     -384.936     921.531     472.410
  H     -384.415     927.088     467.000
  P     -383.799     930.103     469.292
  C     -384.250     932.093     467.673
  O     -383.702     931.640     468.918
  O     -382.978     929.368     468.121
  O     -383.306     929.706     470.631
  H     -382.098     929.068     468.462
  H     -384.387     933.187     467.742
  H     -385.178     931.609     467.478
  H     -383.505     931.885     466.874
  H     -383.738     929.615     462.940
  H     -384.525     928.375     461.993
  H     -383.119     927.981     462.954

 3  4  5  6  7  8  9  10  11  12  13  24  27  28  29  30  32 0
 6-311+G(2d,p)
 ****
 34  35 0
 6-311+G(2d,p)
 ****
 1  2  14  15  16  17  18  19  20  21  22  23  25  26 0
 3-21G
 ****
 31  33  36  37  38  39  40  41  42  43  44  45  46 0
 3-21G
 ****


