%nproc=1
%NoSave
%Mem=1900MB
#P OB98/GEN NMR

erre ene a

0 1
  C       57.544    -136.963      70.659
  O       58.134    -137.636      71.767
  P       58.209    -139.239      71.748
  C       56.632    -139.261      73.788
  O       56.912    -139.811      72.506
  C       55.223    -139.647      74.246
  O       54.218    -139.193      73.325
  C       55.021    -141.149      74.356
  O       55.673    -141.672      75.504
  C       53.501    -141.240      74.374
  O       52.986    -141.000      75.692
  C       53.093    -140.090      73.424
  N       52.671    -140.550      72.110
  C       51.904    -141.721      72.089
  O       51.650    -142.319      73.139
  N       51.452    -142.191      70.879
  C       51.747    -141.554      69.785
  N       51.267    -142.059      68.617
  C       52.569    -140.324      69.765
  C       52.999    -139.891      70.944
  O       59.509    -139.830      72.173
  O       57.895    -139.584      70.208
  H       52.019    -141.135      75.632
  H       58.354    -140.415      69.972
  H       52.783    -139.825      68.827
  H       53.608    -138.997      71.023
  H       52.271    -139.511      73.859
  H       53.150    -142.237      74.068
  H       55.409    -141.640      73.455
  H       55.047    -139.177      75.228
  H       50.725    -142.911      68.655
  H       56.726    -138.169      73.744
  H       51.408    -141.611      67.723
  H       57.392    -139.616      74.497
  P       57.085    -142.394      75.287
  C       56.690    -144.963      75.304
  O       56.818    -143.776      74.532
  O       57.477    -142.859      76.776
  O       58.151    -141.534      74.694
  H       58.445    -142.815      76.883
  H       56.212    -145.729      74.698
  H       56.092    -144.795      76.199
  H       57.690    -145.313      75.589
  H       57.572    -135.907      70.827
  H       56.528    -137.280      70.549
  H       58.089    -137.197      69.768

 3  4  5  6  7  8  9  10  11  12  13  23  27  28  29  30  32 0
 6-311+G(2d,p)
 ****
 34  35 0
 6-311+G(2d,p)
 ****
 1  2  14  15  16  17  18  19  20  21  22  24  25  26 0
 3-21G
 ****
 31  33  36  37  38  39  40  41  42  43  44  45  46 0
 3-21G
 ****


