%nproc=1
%NoSave
%Mem=1900MB
#P OB98/GEN NMR

erre ene a

0 1
  C       35.650    -290.058    -206.429
  O       36.032    -291.337    -206.891
  H       35.331    -289.459    -207.288
  H       36.501    -289.561    -205.959
  H       34.819    -290.129    -205.724
  P       36.412    -292.466    -205.819
  C       38.609    -292.992    -207.066
  O       37.390    -293.509    -206.552
  C       38.813    -293.430    -208.520
  O       39.492    -294.713    -208.529
  C       37.508    -293.587    -209.304
  O       37.713    -293.151    -210.649
  C       37.260    -295.083    -209.279
  O       36.476    -295.520    -210.389
  C       38.683    -295.636    -209.282
  N       40.712    -300.241    -209.742
  C       40.935    -299.093    -210.472
  N       41.819    -299.186    -211.491
  N       40.346    -297.951    -210.231
  C       39.505    -297.999    -209.167
  C       39.198    -299.074    -208.365
  C       39.843    -300.336    -208.658
  O       39.673    -301.390    -208.057
  N       38.284    -298.729    -207.402
  C       38.038    -297.451    -207.622
  N       38.743    -296.965    -208.691
  O       35.245    -293.093    -205.124
  O       37.380    -291.724    -204.786
  H       36.979    -295.288    -211.201
  H       36.919    -291.534    -203.949
  H       41.186    -301.098    -209.977
  H       37.360    -296.836    -207.047
  H       39.099    -295.718    -210.295
  H       36.731    -295.355    -208.357
  H       42.328    -300.027    -211.719
  H       36.688    -293.025    -208.857
  H       42.025    -298.348    -212.024
  H       39.482    -292.711    -209.008
  H       39.430    -293.371    -206.449
  H       38.593    -291.898    -207.000
  P       37.466    -291.610    -211.014
  C       34.978    -291.603    -211.652
  O       36.313    -291.518    -212.128
  O       38.697    -290.816    -211.315
  O       36.730    -291.048    -209.702
  H       37.008    -290.120    -209.556
  H       34.300    -291.531    -212.477
  H       34.792    -290.803    -210.966
  H       34.836    -292.540    -211.155

 6  7  8  9  10  11  12  13  14  15  26  29  33  34 0
 6-311+G(2d,p)
 ****
 36  38  39  40  41 0
 6-311+G(2d,p)
 ****
 1  2  3  4  5  16  17  18  19  20  21  22  23  24  25 0
 3-21G
 ****
 27  28  30  31  32  35  37  42  43  44  45  46  47 0
 3-21G
 ****
 48  49 0
 3-21G
 ****


