%nproc=1
%NoSave
%Mem=1900MB
#P OB98/GEN NMR

erre ene a

0 1
  C       69.757    -225.942      38.755
  O       70.962    -226.161      39.456
  H       69.712    -226.635      37.912
  H       69.736    -224.918      38.371
  H       68.889    -226.112      39.396
  P       71.124    -225.544      40.923
  C       70.743    -223.150      40.039
  O       70.318    -224.156      40.945
  C       69.557    -222.309      39.551
  O       68.920    -221.668      40.682
  C       70.041    -221.192      38.622
  O       69.050    -220.820      37.668
  C       70.271    -220.033      39.579
  O       70.251    -218.763      38.933
  C       69.133    -220.248      40.576
  N       68.754    -216.208      43.655
  C       68.460    -216.312      42.310
  N       68.028    -215.186      41.701
  N       68.592    -217.416      41.623
  C       69.105    -218.442      42.344
  C       69.459    -218.453      43.674
  C       69.269    -217.237      44.433
  O       69.531    -217.082      45.622
  N       69.960    -219.675      44.049
  C       69.918    -220.398      42.949
  N       69.393    -219.698      41.889
  O       72.651    -225.059      40.965
  O       70.814    -226.474      42.056
  H       70.317    -218.081      39.627
  H       72.973    -225.030      41.883
  H       68.620    -215.338      44.139
  H       70.247    -221.427      42.866
  H       68.204    -219.794      40.206
  H       71.261    -220.152      40.030
  H       68.078    -214.280      42.143
  H       70.956    -221.465      38.095
  H       68.091    -215.167      40.680
  H       68.804    -222.952      39.083
  H       71.217    -223.655      39.192
  H       71.499    -222.513      40.506
  P       69.129    -221.494      36.217
  C       69.882    -219.657      34.502
  O       70.245    -220.711      35.374
  O       67.749    -221.071      35.531
  O       69.309    -222.974      36.252
  H       67.140    -221.831      35.502
  H       70.760    -219.263      34.034
  H       69.398    -218.883      35.060
  H       69.214    -220.028      33.753

 6  7  8  9  10  11  12  13  14  15  26  29  33  34 0
 6-311+G(2d,p)
 ****
 36  38  39  40  41 0
 6-311+G(2d,p)
 ****
 1  2  3  4  5  16  17  18  19  20  21  22  23  24  25 0
 3-21G
 ****
 27  28  30  31  32  35  37  42  43  44  45  46  47 0
 3-21G
 ****
 48  49 0
 3-21G
 ****


