%nproc=1
%NoSave
%Mem=1900MB
#P OB98/GEN NMR

erre ene a

0 1
  C     -149.002    -879.405      84.784
  O     -148.072    -879.550      83.719
  P     -147.549    -881.032      83.389
  C     -146.575    -882.898      84.922
  O     -146.725    -881.498      84.675
  C     -146.157    -883.152      86.363
  O     -147.091    -882.534      87.262
  C     -146.116    -884.623      86.746
  O     -144.942    -885.231      86.235
  C     -146.159    -884.532      88.265
  O     -144.833    -884.370      88.815
  C     -147.021    -883.274      88.512
  N     -148.341    -883.595      89.019
  C     -148.497    -883.498      90.409
  O     -147.537    -883.195      91.116
  N     -149.719    -883.804      90.954
  C     -150.697    -884.172      90.180
  N     -151.886    -884.450      90.777
  C     -150.574    -884.297      88.717
  C     -149.379    -883.998      88.205
  O     -146.412    -880.775      82.294
  O     -148.603    -881.974      82.916
  H     -144.417    -883.671      88.276
  H     -146.306    -881.563      81.716
  H     -151.415    -884.603      88.120
  H     -149.193    -884.072      87.141
  H     -146.529    -882.605      89.224
  H     -146.573    -885.439      88.714
  H     -147.007    -885.140      86.374
  H     -145.171    -882.674      86.522
  H     -151.940    -884.363      91.787
  H     -145.803    -883.296      84.252
  H     -152.717    -884.722      90.263
  H     -147.529    -883.392      84.694
  P     -144.710    -886.779      86.567
  C     -144.713    -887.816      88.903
  O     -144.187    -886.806      88.078
  O     -143.374    -887.106      85.738
  O     -145.822    -887.721      86.234
  H     -143.181    -888.058      85.785
  H     -144.167    -887.826      89.854
  H     -144.602    -888.802      88.430
  H     -145.773    -887.623      89.116
  H     -149.263    -878.373      84.892
  H     -148.562    -879.759      85.693
  H     -149.882    -879.974      84.569

 3  4  5  6  7  8  9  10  11  12  13  21  23  27  28  29  30  32 0
 6-311+G(2d,p)
 ****
 34  35 0
 6-311+G(2d,p)
 ****
 1  2  14  15  16  17  18  19  20  22  24  25  26 0
 3-21G
 ****
 31  33  36  37  38  39  40  41  42  43  44  45  46 0
 3-21G
 ****


