%nproc=1
%NoSave
%Mem=1900MB
#P OB98/GEN NMR

erre ene a

0 1
  C     -647.007     272.176     315.100
  O     -647.194     271.427     316.283
  H     -647.403     273.184     315.258
  H     -647.548     271.709     314.274
  H     -645.942     272.252     314.854
  P     -646.479     269.995     316.367
  C     -645.444     270.551     318.688
  O     -646.266     269.679     317.928
  C     -645.709     270.354     320.178
  O     -647.132     270.554     320.429
  C     -645.350     268.956     320.698
  O     -644.834     269.081     322.025
  C     -646.691     268.249     320.749
  O     -646.734     267.151     321.649
  C     -647.608     269.406     321.155
  N     -649.015     269.140     320.857
  C     -649.819     268.691     321.899
  O     -649.455     268.588     323.070
  N     -651.104     268.357     321.553
  C     -651.638     268.402     320.298
  O     -652.791     268.074     320.047
  C     -650.739     268.880     319.239
  C     -649.489     269.217     319.561
  O     -644.995     270.302     315.846
  O     -647.138     268.900     315.596
  H     -644.945     270.190     314.879
  H     -647.608     266.712     321.525
  H     -651.697     268.032     322.295
  H     -651.128     268.916     318.229
  H     -648.788     269.550     318.796
  H     -647.498     269.624     322.223
  H     -646.953     267.875     319.751
  H     -644.624     268.417     320.072
  H     -645.172     271.128     320.742
  H     -645.678     271.590     318.422
  H     -644.393     270.355     318.452
  P     -643.375     269.724     322.194
  C     -643.907     270.266     324.703
  O     -643.046     269.641     323.761
  O     -643.684     271.266     321.933
  O     -642.359     269.111     321.287
  H     -644.556     271.546     322.265
  H     -643.530     270.106     325.692
  H     -644.888     269.846     324.623
  H     -643.951     271.316     324.504

 6  7  8  9  10  11  12  13  14  15  16  27  31  32  33  34  35 0
 6-311+G(2d,p)
 ****
 36  37 0
 6-311+G(2d,p)
 ****
 1  2  3  4  5  17  18  19  20  21  22  23  24  25 0
 3-21G
 ****
 26  28  29  30  38  39  40  41  42  43  44  45 0
 3-21G
 ****


