%nproc=1
%NoSave
%Mem=1900MB
#P OB98/GEN NMR

erre ene a

0 1
  C       20.830      19.898      23.344
  O       20.538      18.923      22.359
  P       21.760      18.007      21.856
  C       21.441      16.386      23.878
  O       21.512      16.550      22.471
  C       20.811      15.033      24.208
  O       19.414      15.030      23.851
  C       21.440      13.855      23.475
  O       22.622      13.436      24.132
  C       20.312      12.830      23.523
  O       20.283      12.158      24.797
  C       19.070      13.714      23.338
  N       16.324      11.507      19.714
  C       16.707      11.031      20.954
  N       16.252       9.804      21.291
  N       17.462      11.695      21.786
  C       17.852      12.901      21.310
  C       17.553      13.476      20.097
  C       16.674      12.751      19.208
  O       16.227      13.170      18.144
  N       18.150      14.701      19.960
  C       18.784      14.878      21.101
  N       18.618      13.825      21.963
  O       23.002      18.576      22.684
  O       21.998      18.019      20.379
  H       20.329      12.820      25.510
  H       23.526      19.195      22.140
  H       15.727      10.957      19.123
  H       19.355      15.756      21.360
  H       18.217      13.353      23.924
  H       20.429      12.054      22.763
  H       15.688       9.224      20.691
  H       21.651      14.122      22.433
  H       16.527       9.436      22.194
  H       20.877      14.888      25.294
  H       20.825      17.184      24.302
  H       22.450      16.456      24.299
  P       23.937      13.239      23.235
  C       25.061      15.443      24.018
  O       25.125      14.031      23.955
  O       23.626      14.114      21.930
  O       24.236      11.822      22.878
  H       24.003      13.676      21.145
  H       25.580      15.778      24.919
  H       24.029      15.802      24.047
  H       25.563      15.863      23.143
  H       19.938      20.435      23.590
  H       21.564      20.579      22.966
  H       21.209      19.416      24.221

 3  4  5  6  7  8  9  10  11  12  23  26  30  31 0
 6-311+G(2d,p)
 ****
 33  35  36  37  38 0
 6-311+G(2d,p)
 ****
 1  2  13  14  15  16  17  18  19  20  21  22  24  25 0
 3-21G
 ****
 27  28  29  32  34  39  40  41  42  43  44  45  46  47  48  49 0
 3-21G
 ****


