%nproc=1
%NoSave
%Mem=1900MB
#P OB98/GEN NMR

erre ene a

0 1
  C     -109.767     165.105     148.641
  O     -109.062     166.143     147.958
  P     -108.907     166.060     146.365
  C     -107.337     164.964     144.641
  O     -107.656     165.115     146.017
  C     -106.502     163.697     144.412
  O     -105.206     163.810     145.070
  C     -107.179     162.437     144.965
  O     -106.862     161.295     144.153
  C     -106.501     162.252     146.310
  O     -106.623     160.913     146.782
  C     -105.077     162.691     145.970
  N     -101.815     161.050     149.560
  C     -102.336     160.439     148.472
  N     -103.181     160.945     147.550
  C     -103.470     162.229     147.824
  C     -103.006     162.985     148.889
  C     -102.144     162.341     149.792
  N     -101.635     162.955     150.915
  N     -103.524     164.264     148.846
  C     -104.327     164.263     147.801
  N     -104.302     163.068     147.134
  O     -108.929     167.366     145.644
  O     -110.154     165.148     145.935
  H     -106.167     160.864     147.643
  H     -110.558     165.520     145.126
  H     -102.040     159.403     148.330
  H     -104.952     165.088     147.493
  H     -104.525     161.905     145.443
  H     -106.956     162.920     147.051
  H     -108.268     162.509     145.060
  H     -106.307     163.589     143.338
  H     -106.787     165.840     144.292
  H     -101.120     162.381     151.565
  H     -101.989     163.864     151.177
  H     -108.266     164.939     144.059
  P     -108.025     160.189     144.007
  C     -108.403     157.899     145.208
  O     -107.829     159.187     145.239
  O     -108.086     159.565     142.651
  O     -109.330     161.034     144.385
  H     -109.265     161.538     145.213
  H     -108.049     157.334     146.074
  H     -108.112     157.364     144.301
  H     -109.494     157.973     145.260
  H     -109.778     165.312     149.691
  H     -109.279     164.169     148.468
  H     -110.772     165.056     148.276

 3  4  5  6  7  8  9  10  11  12  22  25  29  30  31  32 0
 6-311+G(2d,p)
 ****
 33  36  37 0
 6-311+G(2d,p)
 ****
 1  2  13  14  15  16  17  18  19  20  21  23  24  26 0
 3-21G
 ****
 27  28  34  35  38  39  40  41  42  43  44  45  46  47  48 0
 3-21G
 ****


