%nproc=1
%NoSave
%Mem=1900MB
#P OB98/GEN NMR

erre ene a

0 1
  C      -56.767    -338.649     320.622
  O      -57.281    -339.456     319.578
  H      -57.589    -338.158     321.149
  H      -56.226    -339.289     321.326
  H      -56.077    -337.900     320.225
  P      -57.961    -338.690     318.340
  C      -56.715    -340.256     316.679
  O      -57.962    -339.742     317.123
  C      -56.929    -341.329     315.606
  O      -57.375    -342.551     316.249
  C      -57.982    -340.943     314.558
  O      -57.551    -341.407     313.274
  C      -59.217    -341.711     314.999
  O      -60.112    -341.957     313.919
  C      -58.593    -342.970     315.599
  N      -63.127    -345.256     316.150
  C      -62.469    -344.809     315.061
  N      -61.257    -344.213     314.998
  C      -60.701    -344.144     316.223
  C      -61.252    -344.559     317.427
  C      -62.535    -345.129     317.365
  N      -63.228    -345.554     318.474
  N      -60.386    -344.284     318.473
  C      -59.337    -343.718     317.907
  N      -59.485    -343.609     316.551
  O      -56.823    -337.636     317.925
  O      -59.267    -338.026     318.624
  H      -60.912    -342.393     314.278
  H      -56.854    -336.871     318.533
  H      -62.984    -344.938     314.109
  H      -58.458    -343.365     318.431
  H      -58.341    -343.718     314.835
  H      -59.755    -341.138     315.767
  H      -58.160    -339.867     314.515
  H      -55.963    -341.551     315.138
  H      -56.187    -340.696     317.536
  H      -64.164    -345.901     318.342
  H      -62.826    -345.410     319.391
  H      -56.111    -339.438     316.267
  P      -57.326    -340.292     312.139
  C      -55.401    -341.553     310.951
  O      -56.704    -341.003     310.840
  O      -56.116    -339.414     312.713
  O      -58.540    -339.450     311.884
  H      -56.342    -338.466     312.675
  H      -55.118    -341.991     310.017
  H      -55.395    -342.304     311.713
  H      -54.708    -340.779     311.207

 6  7  8  9  10  11  12  13  14  15  25  28  32  33  34  35 0
 6-311+G(2d,p)
 ****
 36  39  40 0
 6-311+G(2d,p)
 ****
 1  2  3  4  5  16  17  18  19  20  21  22  23  24 0
 3-21G
 ****
 26  27  29  30  31  37  38  41  42  43  44  45  46  47 0
 3-21G
 ****
 48 0
 3-21G
 ****


