%nproc=1
%NoSave
%Mem=1900MB
#P OB98/GEN NMR

erre ene a

0 1
  C     -229.752     -14.550    -317.007
  O     -228.802     -15.492    -316.553
  H     -230.762     -14.885    -316.761
  H     -229.569     -13.594    -316.510
  H     -229.659     -14.410    -318.088
  P     -228.921     -16.981    -317.135
  C     -226.535     -17.087    -318.146
  O     -227.934     -17.070    -318.402
  C     -225.766     -17.119    -319.464
  O     -225.861     -18.458    -320.016
  C     -226.272     -16.127    -320.527
  O     -225.218     -15.249    -320.928
  C     -226.646     -17.004    -321.714
  O     -226.272     -16.439    -322.970
  C     -225.905     -18.306    -321.440
  N     -226.001     -21.285    -325.576
  C     -225.023     -20.511    -325.053
  N     -225.024     -19.827    -323.892
  C     -226.179     -20.019    -323.229
  C     -227.255     -20.794    -323.621
  C     -227.146     -21.435    -324.866
  N     -228.163     -22.178    -325.423
  N     -228.268     -20.738    -322.682
  C     -227.826     -19.908    -321.759
  N     -226.574     -19.432    -322.054
  O     -230.381     -17.000    -317.797
  O     -228.757     -18.069    -316.129
  H     -226.703     -16.977    -323.660
  H     -230.859     -17.800    -317.513
  H     -224.121     -20.428    -325.651
  H     -228.379     -19.582    -320.887
  H     -224.871     -18.278    -321.809
  H     -227.731     -17.157    -321.715
  H     -227.136     -15.544    -320.184
  H     -224.707     -16.933    -319.249
  H     -226.280     -17.979    -317.562
  H     -228.044     -22.502    -326.370
  H     -229.056     -22.201    -324.954
  H     -226.270     -16.200    -317.563
  P     -225.458     -13.676    -320.686
  C     -223.297     -13.892    -319.249
  O     -224.546     -13.238    -319.438
  O     -226.943     -13.630    -320.091
  O     -225.321     -12.845    -321.919
  H     -227.358     -12.767    -320.290
  H     -222.812     -13.492    -318.383
  H     -222.679     -13.735    -320.108
  H     -223.460     -14.941    -319.114

 6  7  8  9  10  11  12  13  14  15  25  28  32  33  34  35 0
 6-311+G(2d,p)
 ****
 36  39  40 0
 6-311+G(2d,p)
 ****
 1  2  3  4  5  16  17  18  19  20  21  22  23  24 0
 3-21G
 ****
 26  27  29  30  31  37  38  41  42  43  44  45  46  47  48 0
 3-21G
 ****


