%nproc=1
%NoSave
%Mem=1900MB
#P OB98/GEN NMR

erre ene a

0 1
  C      633.960     571.923      39.187
  O      634.064     572.358      40.526
  H      634.812     572.315      38.623
  H      633.040     572.307      38.738
  H      633.973     570.832      39.135
  P      632.918     571.872      41.544
  C      634.409     570.286      42.971
  O      633.369     570.401      42.006
  C      635.070     568.912      42.882
  O      634.107     567.894      43.234
  C      635.608     568.586      41.485
  O      636.892     567.972      41.600
  C      634.596     567.600      40.924
  O      635.166     566.743      39.936
  C      634.082     566.905      42.188
  N      632.745     566.349      42.008
  C      632.624     564.956      42.065
  O      633.621     564.255      42.252
  N      631.398     564.385      41.860
  C      630.388     565.136      41.559
  N      629.196     564.508      41.346
  C      630.469     566.604      41.437
  C      631.669     567.139      41.679
  O      631.671     571.599      40.581
  O      632.625     572.815      42.666
  H      634.432     566.278      39.482
  H      630.836     571.499      41.089
  H      629.606     567.186      41.168
  H      631.827     568.211      41.608
  H      634.765     566.088      42.479
  H      633.777     568.161      40.444
  H      635.687     569.462      40.849
  H      635.870     568.860      43.632
  H      629.176     563.498      41.427
  H      633.980     570.425      43.972
  H      628.348     564.989      41.073
  H      635.158     571.067      42.791
  P      638.130     568.976      41.790
  C      638.871     568.546      44.232
  O      638.180     569.406      43.342
  O      637.650     570.309      41.038
  O      639.414     568.449      41.239
  H      638.040     570.359      40.149
  H      638.827     568.948      45.223
  H      639.893     568.463      43.926
  H      638.415     567.578      44.219

 6  7  8  9  10  11  12  13  14  15  16  26  30  31  32  33  35 0
 6-311+G(2d,p)
 ****
 37  38 0
 6-311+G(2d,p)
 ****
 1  2  3  4  5  17  18  19  20  21  22  23  24  25 0
 3-21G
 ****
 27  28  29  34  36  39  40  41  42  43  44  45  46 0
 3-21G
 ****


