%nproc=1
%NoSave
%Mem=1900MB
#P OB98/GEN NMR

erre ene a

0 1
  C     -215.187     232.748    -226.012
  O     -213.943     232.159    -226.345
  P     -213.283     231.050    -225.400
  C     -211.210     231.882    -224.013
  O     -212.613     231.785    -224.150
  C     -210.719     233.145    -224.734
  O     -211.459     234.296    -224.280
  C     -209.238     233.402    -224.473
  O     -208.446     232.852    -225.516
  C     -209.173     234.915    -224.408
  O     -209.126     235.484    -225.732
  C     -210.522     235.254    -223.721
  N     -210.596     235.169    -222.250
  C     -209.941     236.114    -221.474
  O     -209.307     237.064    -221.935
  N     -210.016     235.925    -220.112
  C     -210.706     234.926    -219.483
  O     -210.565     234.625    -218.304
  C     -211.588     234.129    -220.345
  C     -211.480     234.265    -221.664
  O     -212.022     230.553    -226.254
  O     -214.175     229.919    -225.010
  H     -209.331     236.432    -225.638
  H     -212.230     229.721    -226.715
  H     -209.427     236.525    -219.544
  H     -212.256     233.421    -219.876
  H     -212.100     233.664    -222.323
  H     -210.863     236.260    -224.010
  H     -208.264     235.252    -223.903
  H     -208.946     232.996    -223.498
  H     -210.903     233.030    -225.812
  H     -210.729     230.992    -224.434
  H     -210.938     231.924    -222.950
  P     -206.914     232.476    -225.230
  C     -205.442     234.030    -226.641
  O     -206.102     233.847    -225.400
  O     -206.378     231.310    -225.998
  O     -206.896     232.202    -223.646
  H     -206.954     231.238    -223.473
  H     -205.089     235.064    -226.700
  H     -206.129     233.841    -227.471
  H     -204.584     233.352    -226.710
  H     -215.457     233.461    -226.763
  H     -215.106     233.241    -225.066
  H     -215.938     231.988    -225.955

 3  4  5  6  7  8  9  10  11  12  13  23  28  29  30  31  32 0
 6-311+G(2d,p)
 ****
 33  34 0
 6-311+G(2d,p)
 ****
 1  2  14  15  16  17  18  19  20  21  22  24  25  26  27 0
 3-21G
 ****
 35  36  37  38  39  40  41  42  43  44  45 0
 3-21G
 ****


