%nproc=1
%NoSave
%Mem=1900MB
#P OB98/GEN NMR

erre ene a

0 1
  C       59.074       0.367     -68.486
  O       58.741       1.341     -67.518
  H       59.185      -0.600     -67.987
  H       60.017       0.615     -68.982
  H       58.275       0.286     -69.228
  P       58.776       2.885     -67.957
  C       60.655       4.403     -68.874
  O       60.334       3.261     -68.081
  C       62.104       4.340     -69.364
  O       62.245       3.316     -70.369
  C       62.582       5.620     -70.030
  O       62.736       6.710     -69.145
  C       63.774       5.140     -70.847
  O       64.990       5.103     -70.108
  C       63.345       3.700     -71.220
  N       63.010       3.577     -72.633
  C       64.036       3.863     -73.527
  O       65.160       4.225     -73.177
  N       63.718       3.767     -74.853
  C       62.485       3.465     -75.358
  O       62.253       3.434     -76.560
  C       61.432       3.197     -74.364
  C       61.738       3.262     -73.066
  O       57.994       3.827     -67.091
  O       58.289       2.858     -69.481
  H       64.794       4.672     -69.254
  H       58.015       3.757     -69.783
  H       64.451       3.961     -75.514
  H       60.443       2.958     -74.729
  H       60.977       3.070     -72.314
  H       64.160       2.995     -71.006
  H       63.947       5.780     -71.715
  H       61.819       5.929     -70.756
  H       62.744       4.072     -68.516
  H       60.526       5.290     -68.248
  H       59.966       4.465     -69.724
  P       62.756       8.232     -69.625
  C       64.279       9.578     -71.244
  O       64.194       8.533     -70.283
  O       62.173       9.241     -68.689
  O       61.797       8.169     -70.922
  H       61.312       9.016     -70.971
  H       65.288       9.662     -71.591
  H       63.979      10.501     -70.794
  H       63.635       9.357     -72.069

 6  7  8  9  10  11  12  13  14  15  16  26  31  32  33  34  35 0
 6-311+G(2d,p)
 ****
 36  37 0
 6-311+G(2d,p)
 ****
 1  2  3  4  5  17  18  19  20  21  22  23  24  25 0
 3-21G
 ****
 27  28  29  30  38  39  40  41  42  43  44  45 0
 3-21G
 ****


