%nproc=1
%NoSave
%Mem=1900MB
#P OB98/GEN NMR

erre ene a

0 1
  C      -98.635    -889.535    -891.700
  O      -97.261    -889.714    -891.200
  P      -96.115    -890.063    -892.260
  C      -94.613    -887.910    -892.460
  O      -95.650    -888.699    -893.050
  C      -94.514    -886.545    -893.160
  O      -94.313    -886.781    -894.600
  C      -95.755    -885.603    -893.010
  O      -95.219    -884.276    -893.050
  C      -96.520    -885.920    -894.330
  O      -97.451    -884.874    -894.640
  C      -95.369    -886.036    -895.320
  N      -95.686    -886.758    -896.560
  C      -96.022    -885.966    -897.670
  O      -96.119    -884.699    -897.650
  N      -96.284    -886.664    -898.800
  C      -96.367    -887.992    -898.970
  O      -96.647    -888.530    -900.000
  C      -96.016    -888.778    -897.750
  C      -95.771    -888.121    -896.630
  O      -96.946    -890.802    -893.440
  O      -94.993    -890.930    -891.760
  H      -97.890    -885.172    -895.510
  H      -96.474    -891.620    -893.720
  H      -96.533    -886.064    -899.610
  H      -96.035    -889.865    -897.810
  H      -95.495    -888.722    -895.760
  H      -94.937    -885.042    -895.550
  H      -97.079    -886.868    -894.190
  H      -96.314    -885.855    -892.120
  H      -93.557    -886.045    -892.800
  H      -93.692    -888.472    -892.530
  H      -94.847    -887.766    -891.370
  P      -95.036    -883.516    -891.580
  C      -93.112    -882.099    -892.660
  O      -93.559    -882.904    -891.580
  O      -94.901    -884.798    -890.610
  O      -96.200    -882.584    -891.250
  H      -94.328    -885.500    -890.950
  H      -93.940    -881.377    -893.000
  H      -92.826    -882.716    -893.490
  H      -92.317    -881.490    -892.330
  H      -99.286    -889.308    -890.882
  H      -98.962    -890.436    -892.176
  H      -98.656    -888.731    -892.406

 3  4  5  6  7  8  9  10  11  12  13  23  28  29  30  31  32 0
 6-311+G(2d,p)
 ****
 33  34 0
 6-311+G(2d,p)
 ****
 1  2  14  15  16  17  18  19  20  21  22  24  25  26 0
 3-21G
 ****
 27  35  36  37  38  39  40  41  42  43  44  45 0
 3-21G
 ****


