%nproc=1
%NoSave
%Mem=1900MB
#P OB98/GEN NMR

erre ene a

0 1
  C      -88.982      27.362      29.010
  O      -88.354      28.642      28.861
  P      -87.490      29.023      27.564
  C      -89.577      29.466      26.121
  O      -88.359      29.999      26.634
  C      -90.016      30.185      24.842
  O      -91.044      29.438      24.163
  C      -90.586      31.582      25.064
  O      -89.546      32.519      25.270
  C      -91.389      31.783      23.782
  O      -90.527      32.188      22.706
  C      -91.937      30.373      23.527
  N      -96.873      31.347      22.613
  C      -95.752      31.631      21.915
  N      -94.470      31.342      22.227
  C      -94.408      30.665      23.386
  C      -95.464      30.308      24.210
  C      -96.751      30.679      23.784
  N      -97.889      30.403      24.504
  N      -95.009      29.644      25.329
  C      -93.701      29.585      25.174
  N      -93.290      30.188      24.017
  O      -86.912      27.848      26.845
  O      -86.327      29.976      28.116
  H      -90.227      33.095      22.898
  H      -85.541      29.900      27.544
  H      -95.904      32.164      20.980
  H      -93.014      29.117      25.867
  H      -91.939      30.127      22.459
  H      -92.165      32.547      23.885
  H      -91.267      31.577      25.922
  H      -89.149      30.229      24.169
  H      -90.353      29.578      26.888
  H      -98.772      30.732      24.146
  H      -97.803      29.946      25.401
  H      -89.432      28.399      25.919
  P      -89.498      33.383      26.617
  C      -88.438      31.773      28.310
  O      -88.227      32.881      27.455
  O      -90.776      33.455      27.383
  O      -89.037      34.835      26.118
  H      -89.409      35.512      26.714
  H      -88.914      32.111      29.234
  H      -87.470      31.327      28.551
  H      -89.066      31.020      27.827
  H      -89.502      27.327      29.944
  H      -88.237      26.594      28.987
  H      -89.676      27.210      28.210

 3  4  5  6  7  8  9  10  11  12  22  25  29  30  31  32 0
 6-311+G(2d,p)
 ****
 33  36  37 0
 6-311+G(2d,p)
 ****
 1  2  13  14  15  16  17  18  19  20  21  23  24  26 0
 3-21G
 ****
 27  28  34  35  38  39  40  41  42  43  44  45  46  47  48 0
 3-21G
 ****


