%nproc=1
%NoSave
%Mem=1900MB
#P OB98/GEN NMR

erre ene a

0 1
  C     -367.156     602.814      10.561
  O     -367.125     604.165      11.011
  P     -368.468     605.026      10.848
  C     -367.339     606.595       9.123
  O     -368.394     605.684       9.387
  C     -367.797     607.674       8.143
  O     -367.947     607.106       6.832
  C     -369.146     608.300       8.477
  O     -369.035     609.301       9.477
  C     -369.527     608.904       7.132
  O     -368.870     610.176       6.970
  C     -368.954     607.880       6.135
  N     -371.975     606.807       2.206
  C     -371.063     607.832       2.369
  N     -370.916     608.677       1.321
  N     -370.362     608.011       3.457
  C     -370.585     607.070       4.401
  C     -371.460     606.008       4.357
  C     -372.268     605.848       3.168
  O     -373.142     604.996       2.994
  N     -371.395     605.258       5.508
  C     -370.455     605.838       6.221
  N     -369.949     606.961       5.610
  O     -368.220     606.274      11.826
  O     -369.724     604.299      11.186
  H     -369.108     610.511       6.089
  H     -369.076     606.639      12.122
  H     -372.473     606.702       1.339
  H     -370.114     605.487       7.185
  H     -368.464     608.371       5.290
  H     -370.602     609.091       7.031
  H     -371.327     608.514       0.419
  H     -369.878     607.531       8.751
  H     -370.225     609.412       1.413
  H     -367.015     608.444       8.095
  H     -366.489     606.058       8.690
  H     -367.018     607.051      10.069
  P     -370.030     609.169      10.736
  C     -371.169     611.495      10.459
  O     -371.292     610.085      10.371
  O     -369.280     609.995      11.882
  O     -370.324     607.764      11.146
  H     -369.538     609.665      12.765
  H     -370.168     611.823      10.150
  H     -371.352     611.814      11.481
  H     -371.902     611.955       9.795
  H     -366.201     602.360      10.728
  H     -367.383     602.791       9.516
  H     -367.907     602.275      11.101

 3  4  5  6  7  8  9  10  11  12  23  26  30  31  33  0
 6-311+G(2d,p)
 ****
 35  36  37  38 0
 6-311+G(2d,p)
 ****
 1  2  13  14  15  16  17  18  19  20  21  22  24  25  27  28  29 0
 3-21G
 ****
 32  34  39  40  41  42  43  44  45  46  47  48  49 0
 3-21G
 ****


