%nproc=1
%NoSave
%Mem=1900MB
#P OB98/GEN NMR

erre ene a

0 1
  C      332.004     200.302    -183.943
  O      332.116     199.079    -183.244
  H      331.509     201.031    -183.296
  H      331.405     200.177    -184.848
  H      332.996     200.684    -184.201
  P      332.707     197.808    -184.019
  C      330.592     196.351    -183.718
  O      331.969     196.519    -183.418
  C      329.893     195.526    -182.632
  O      329.798     196.326    -181.420
  C      328.465     195.095    -183.004
  O      328.207     193.849    -182.340
  C      327.643     196.211    -182.389
  O      326.282     195.872    -182.316
  C      328.398     196.415    -181.074
  N      328.073     197.679    -180.432
  C      327.488     197.599    -179.166
  O      327.261     196.500    -178.656
  N      327.143     198.758    -178.523
  C      327.308     199.897    -179.119
  N      326.937     201.010    -178.434
  C      327.869     200.025    -180.480
  C      328.232     198.886    -181.071
  O      334.195     197.713    -184.069
  O      332.083     197.930    -185.490
  H      326.158     195.019    -181.843
  H      332.767     198.240    -186.114
  H      327.968     200.995    -180.941
  H      328.654     198.878    -182.072
  H      328.183     195.600    -180.369
  H      327.707     197.114    -183.002
  H      328.320     194.984    -184.083
  H      330.520     194.658    -182.392
  H      326.544     200.876    -177.507
  H      330.523     195.838    -184.681
  H      326.995     201.948    -178.801
  H      330.103     197.329    -183.807
  P      327.047     192.842    -182.794
  C      326.535     191.923    -180.438
  O      326.972     191.620    -181.758
  O      327.133     192.421    -184.226
  O      325.681     193.637    -182.529
  H      325.015     193.348    -183.183
  H      326.529     191.029    -179.850
  H      325.547     192.332    -180.474
  H      327.200     192.636    -179.997

 6  7  8  9  10  11  12  13  14  15  16  26  30  31  32  33  35 0
 6-311+G(2d,p)
 ****
 37  38 0
 6-311+G(2d,p)
 ****
 1  2  3  4  5  17  18  19  20  21  22  23  24  25 0
 3-21G
 ****
 27  28  29  34  36  39  40  41  42  43  44  45  46 0
 3-21G
 ****


