%nproc=1
%NoSave
%Mem=1900MB
#P OB98/GEN NMR

erre ene a

0 1
  C      112.943     -20.989    -578.779
  O      113.099     -20.854    -577.365
  P      112.031     -19.947    -576.589
  C      110.852     -21.841    -575.244
  O      110.745     -20.842    -576.255
  C      109.827     -22.950    -575.494
  O      110.073     -23.620    -576.744
  C      109.866     -24.048    -574.441
  O      109.213     -23.629    -573.260
  C      109.170     -25.199    -575.157
  O      107.750     -25.181    -574.933
  C      109.492     -24.929    -576.645
  N      110.369     -25.942    -577.222
  C      109.732     -27.068    -577.752
  O      108.502     -27.173    -577.696
  N      110.504     -28.052    -578.308
  C      111.796     -27.935    -578.313
  N      112.511     -28.951    -578.871
  C      112.506     -26.774    -577.739
  C      111.733     -25.822    -577.212
  O      111.503     -18.948    -577.721
  O      112.601     -19.203    -575.423
  H      107.499     -24.234    -574.932
  H      111.280     -18.081    -577.335
  H      113.583     -26.728    -577.754
  H      112.172     -24.935    -576.767
  H      108.568     -24.907    -577.238
  H      109.536     -26.167    -574.804
  H      110.908     -24.321    -574.227
  H      108.825     -22.498    -575.526
  H      111.989     -29.731    -579.253
  H      110.690     -21.400    -574.262
  H      113.518     -28.965    -578.919
  H      111.871     -22.241    -575.248
  P      110.126     -23.173    -572.025
  C      108.988     -20.871    -572.115
  O      110.214     -21.576    -572.145
  O      111.585     -23.621    -572.504
  O      109.783     -23.722    -570.682
  H      112.231     -23.485    -571.786
  H      109.198     -19.808    -571.993
  H      108.371     -21.204    -571.278
  H      108.455     -21.018    -573.058
  H      113.719     -21.617    -579.165
  H      113.003     -20.024    -579.238
  H      111.990     -21.427    -578.993

 3  4  5  6  7  8  9  10  11  12  13  21  23  27  28  29  30  32 0
 6-311+G(2d,p)
 ****
 34  35 0
 6-311+G(2d,p)
 ****
 1  2  14  15  16  17  18  19  20  22  24  25  26 0
 3-21G
 ****
 31  33  36  37  38  39  40  41  42  43  44  45  46 0
 3-21G
 ****


