%nproc=1
%NoSave
%Mem=1900MB
#P OB98/GEN NMR

erre ene a

0 1
  C       17.264      43.931      -0.045
  O       17.367      43.102       1.099
  P       16.627      43.557       2.443
  C       14.697      41.835       2.178
  O       15.071      43.199       2.286
  C       13.364      41.590       2.888
  O       12.820      40.304       2.462
  C       13.469      41.555       4.420
  O       12.251      42.099       4.948
  C       13.531      40.068       4.710
  O       13.189      39.745       6.050
  C       12.548      39.547       3.657
  N       12.672      38.109       3.426
  C       12.287      37.260       4.457
  O       11.853      37.646       5.541
  N       12.474      35.923       4.229
  C       13.077      35.370       3.138
  O       13.321      34.172       3.047
  C       13.464      36.315       2.080
  C       13.247      37.619       2.268
  O       16.660      45.154       2.357
  O       17.251      43.053       3.701
  H       12.314      40.133       6.230
  H       17.376      45.511       2.914
  H       12.190      35.292       4.962
  H       13.926      35.908       1.190
  H       13.542      38.341       1.513
  H       11.517      39.779       3.955
  H       14.547      39.703       4.524
  H       14.332      42.101       4.812
  H       12.652      42.363       2.572
  H       15.467      41.215       2.638
  H       14.628      41.556       1.121
  P       12.345      43.002       6.274
  C       13.123      45.002       4.783
  O       13.332      44.215       5.936
  O       13.216      42.048       7.223
  O       11.015      43.364       6.849
  H       13.961      41.635       6.755
  H       12.059      45.114       4.560
  H       13.622      44.534       3.931
  H       13.555      45.992       4.947
  H       17.809      43.492      -0.854
  H       17.670      44.896       0.176
  H       16.235      44.032      -0.321

 3  4  5  6  7  8  9  10  11  12  13  23  28  29  30  31  32 0
 6-311+G(2d,p)
 ****
 33  34 0
 6-311+G(2d,p)
 ****
 1  2  14  15  16  17  18  19  20  21  22  24  25  26 0
 3-21G
 ****
 27  35  36  37  38  39  40  41  42  43  44  45 0
 3-21G
 ****


