%nproc=1
%NoSave
%Mem=1900MB
#P OB98/GEN NMR

erre ene a

0 1
  C       60.398     155.242    -421.973
  O       59.673     154.189    -421.366
  H       61.125     154.838    -422.685
  H       59.699     155.886    -422.514
  H       60.910     155.838    -421.213
  P       60.517     153.128    -420.509
  C       59.919     154.206    -418.221
  O       60.939     153.892    -419.161
  C       60.363     153.785    -416.822
  O       60.383     152.344    -416.723
  C       61.766     154.249    -416.446
  O       61.786     155.594    -416.006
  C       62.074     153.293    -415.305
  O       61.388     153.719    -414.113
  C       61.471     151.977    -415.826
  N       65.665     149.080    -415.391
  C       64.964     149.796    -414.486
  N       63.862     150.547    -414.685
  C       63.488     150.510    -415.972
  C       64.101     149.833    -417.008
  C       65.241     149.080    -416.678
  N       65.969     148.359    -417.603
  N       63.448     150.067    -418.203
  C       62.436     150.847    -417.884
  N       62.423     151.151    -416.546
  O       61.900     153.015    -421.308
  O       59.868     151.803    -420.299
  H       61.957     154.389    -413.687
  H       62.353     152.182    -421.075
  H       65.346     149.763    -413.467
  H       61.689     151.215    -418.577
  H       61.044     151.365    -415.024
  H       63.138     153.244    -415.065
  H       62.477     154.079    -417.257
  H       59.619     154.161    -416.106
  H       59.003     153.669    -418.488
  H       66.864     148.009    -417.301
  H       65.750     148.478    -418.582
  H       59.721     155.284    -418.250
  P       63.214     156.324    -415.921
  C       62.907     157.540    -418.200
  O       63.654     156.594    -417.438
  O       64.192     155.150    -415.452
  O       63.257     157.503    -415.005
  H       64.964     155.509    -414.978
  H       63.319     157.610    -419.185
  H       62.954     158.498    -417.725
  H       61.887     157.223    -418.262

 6  7  8  9  10  11  12  13  14  15  25  28  32  33  34  35 0
 6-311+G(2d,p)
 ****
 36  39  40 0
 6-311+G(2d,p)
 ****
 1  2  3  4  5  16  17  18  19  20  21  22  23  24 0
 3-21G
 ****
 26  27  29  30  31  37  38  41  42  43  44  45  46  47 0
 3-21G
 ****
 48 0
 3-21G
 ****


