%nproc=1
%NoSave
%Mem=1900MB
#P OB98/GEN NMR

erre ene a

0 1
  C      -18.952      49.876     287.948
  O      -18.413      48.847     287.119
  P      -17.461      49.270     285.899
  C      -15.247      48.338     286.842
  O      -16.236      48.235     285.822
  C      -14.304      47.124     286.806
  O      -14.947      46.009     287.483
  C      -13.963      46.610     285.400
  O      -12.831      47.170     284.735
  C      -13.619      45.151     285.691
  O      -12.252      45.053     286.135
  C      -14.556      44.781     286.837
  N      -16.910      40.238     286.855
  C      -15.742      40.651     287.394
  N      -15.187      41.879     287.340
  C      -15.970      42.730     286.661
  C      -17.188      42.453     286.060
  C      -17.660      41.133     286.172
  N      -18.845      40.710     285.616
  N      -17.696      43.579     285.445
  C      -16.790      44.512     285.657
  N      -15.737      44.055     286.396
  O      -17.090      50.711     285.829
  O      -18.338      48.849     284.620
  H      -12.198      45.540     286.978
  H      -18.209      49.512     283.917
  H      -15.178      39.897     287.933
  H      -16.857      45.529     285.291
  H      -14.065      44.158     287.594
  H      -13.706      44.518     284.803
  H      -14.838      46.661     284.743
  H      -13.382      47.366     287.349
  H      -15.732      48.397     287.819
  H      -19.091      39.735     285.704
  H      -19.388      41.352     285.054
  H      -14.720      49.281     286.693
  P      -12.738      47.206     283.137
  C      -12.505      49.799     282.895
  O      -11.905      48.528     282.784
  O      -14.042      47.083     282.423
  O      -11.699      46.032     282.825
  H      -10.790      46.211     283.114
  H      -11.728      50.562     282.823
  H      -13.017      49.906     283.854
  H      -13.218      49.946     282.077
  H      -19.561      49.437     288.710
  H      -19.546      50.538     287.354
  H      -18.153      50.424     288.401

 3  4  5  6  7  8  9  10  11  12  22  25  29  30  31  32 0
 6-311+G(2d,p)
 ****
 33  36  37 0
 6-311+G(2d,p)
 ****
 1  2  13  14  15  16  17  18  19  20  21  23  24  26 0
 3-21G
 ****
 27  28  34  35  38  39  40  41  42  43  44  45  46  47  48 0
 3-21G
 ****


