%nproc=1
%NoSave
%Mem=1900MB
#P OB98/GEN NMR

erre ene a

0 1
  C     -111.740     211.997      60.660
  O     -110.727     210.997      60.548
  P     -109.887     210.587      61.852
  C     -108.508     212.764      61.919
  O     -109.427     211.929      62.608
  C     -107.777     213.697      62.900
  O     -106.800     214.518      62.192
  C     -108.734     214.658      63.621
  O     -108.266     214.931      64.951
  C     -108.603     215.933      62.812
  O     -109.024     217.077      63.558
  C     -107.117     215.899      62.463
  N     -104.583     220.070      60.899
  C     -104.652     219.457      62.104
  N     -105.327     218.338      62.441
  C     -105.972     217.833      61.374
  C     -105.984     218.338      60.080
  C     -105.254     219.519      59.858
  N     -105.207     220.158      58.640
  N     -106.765     217.554      59.253
  C     -107.250     216.619      60.045
  N     -106.775     216.724      61.325
  O     -108.806     209.583      61.635
  O     -111.017     210.012      62.834
  H     -108.821     217.862      63.023
  H     -110.676     209.213      63.279
  H     -104.091     219.935      62.906
  H     -107.955     215.853      59.745
  H     -106.496     216.221      63.306
  H     -109.227     215.866      61.908
  H     -109.771     214.307      63.676
  H     -107.223     213.091      63.624
  H     -109.037     213.354      61.167
  H     -104.754     221.057      58.605
  H     -105.823     219.843      57.903
  H     -107.799     212.137      61.363
  P     -109.125     214.278      66.150
  C     -111.266     215.722      65.748
  O     -110.661     214.450      65.730
  O     -108.746     214.792      67.502
  O     -108.831     212.717      65.950
  H     -108.966     212.386      65.043
  H     -112.265     215.649      65.312
  H     -110.685     216.444      65.165
  H     -111.366     216.078      66.780
  H     -112.199     212.148      59.705
  H     -111.301     212.914      60.994
  H     -112.479     211.678      61.365

 3  4  5  6  7  8  9  10  11  12  22  25  29  30  31  32 0
 6-311+G(2d,p)
 ****
 33  36  37 0
 6-311+G(2d,p)
 ****
 1  2  13  14  15  16  17  18  19  20  21  23  24  26 0
 3-21G
 ****
 27  28  34  35  38  39  40  41  42  43  44  45  46  47  48 0
 3-21G
 ****


