%nproc=1
%NoSave
%Mem=1900MB
#P OB98/GEN NMR

erre ene a

0 1
  C      314.982      55.176    -716.099
  O      313.674      55.027    -715.604
  P      312.431      54.906    -716.625
  C      312.211      52.364    -716.287
  O      312.473      53.416    -717.222
  C      310.816      51.782    -716.535
  O      310.662      51.361    -717.914
  C      310.509      50.538    -715.727
  O      310.414      50.679    -714.327
  C      309.285      50.005    -716.451
  O      308.093      50.679    -716.041
  C      309.628      50.346    -717.925
  N      310.028      49.171    -718.687
  C      309.018      48.253    -718.970
  O      307.855      48.394    -718.621
  N      309.408      47.130    -719.656
  C      310.690      46.824    -720.025
  O      310.970      45.774    -720.603
  C      311.711      47.813    -719.683
  C      311.348      48.923    -719.033
  O      312.353      55.987    -717.658
  O      311.166      54.849    -715.651
  H      308.272      51.632    -716.056
  H      311.164      54.101    -715.024
  H      308.698      46.453    -719.856
  H      312.733      47.605    -719.977
  H      312.080      49.671    -718.771
  H      308.754      50.792    -718.422
  H      309.123      48.932    -716.259
  H      311.324      49.815    -715.893
  H      310.075      52.574    -716.357
  H      312.259      52.762    -715.266
  H      312.982      51.590    -716.378
  P      311.474      50.039    -713.302
  C      312.688      52.224    -712.577
  O      312.764      50.986    -713.250
  O      311.692      48.565    -713.390
  O      310.783      50.369    -711.879
  H      311.015      49.665    -711.240
  H      313.632      52.759    -712.691
  H      312.490      52.068    -711.515
  H      311.888      52.842    -713.022
  H      315.668      55.239    -715.280
  H      315.042      56.069    -716.685
  H      315.231      54.333    -716.709

 3  4  5  6  7  8  9  10  11  12  13  23  28  29  30  31  32 0
 6-311+G(2d,p)
 ****
 33  34 0
 6-311+G(2d,p)
 ****
 1  2  14  15  16  17  18  19  20  21  22  24  25  26  27 0
 3-21G
 ****
 35  36  37  38  39  40  41  42  43  44  45 0
 3-21G
 ****


