%nproc=1
%NoSave
%Mem=1900MB
#P OB98/GEN NMR

erre ene a

0 1
  C      579.332     184.233    -483.461
  O      579.161     183.119    -484.320
  H      580.084     184.009    -482.698
  H      579.669     185.087    -484.050
  H      578.381     184.488    -482.978
  P      578.658     181.757    -483.650
  C      577.335     180.579    -485.561
  O      578.565     180.688    -484.855
  C      577.477     179.562    -486.683
  O      578.243     180.142    -487.783
  C      578.220     178.289    -486.291
  O      577.376     177.369    -485.622
  C      578.626     177.770    -487.666
  O      577.492     177.160    -488.312
  C      579.019     179.068    -488.383
  N      583.766     177.496    -489.512
  C      582.546     176.948    -489.721
  N      581.335     177.404    -489.402
  C      581.455     178.594    -488.767
  C      582.610     179.284    -488.468
  C      583.825     178.687    -488.863
  N      585.066     179.240    -488.631
  N      582.337     180.462    -487.776
  C      581.012     180.486    -487.708
  N      580.439     179.392    -488.279
  O      577.116     182.049    -483.304
  O      579.427     181.285    -482.457
  H      577.814     176.845    -489.188
  H      576.803     181.429    -482.618
  H      582.565     175.974    -490.241
  H      580.434     181.272    -487.227
  H      578.771     179.046    -489.456
  H      579.419     177.012    -487.611
  H      579.113     178.511    -485.706
  H      576.474     179.328    -487.070
  H      577.077     181.561    -485.981
  H      585.868     178.646    -488.791
  H      585.119     180.047    -488.029
  H      576.543     180.266    -484.862
  P      577.884     176.790    -484.213
  C      575.683     177.393    -482.958
  O      576.571     176.355    -483.409
  O      578.384     178.100    -483.444
  O      578.958     175.748    -484.319
  H      579.083     177.880    -482.791
  H      574.856     176.955    -482.440
  H      575.324     177.946    -483.801
  H      576.209     178.051    -482.298

 6  7  8  9  10  11  12  13  14  15  25  28  32  33  34  35 0
 6-311+G(2d,p)
 ****
 36  39  40 0
 6-311+G(2d,p)
 ****
 1  2  3  4  5  16  17  18  19  20  21  22  23  24 0
 3-21G
 ****
 26  27  29  30  31  37  38  41  42  43  44  45  46  47 0
 3-21G
 ****
 48 0
 3-21G
 ****


