%nproc=1
%NoSave
%Mem=1900MB
#P OB98/GEN NMR

erre ene a

0 1
  C     1322.626     572.883     886.628
  O     1322.839     571.628     886.004
  H     1321.567     572.970     886.848
  H     1322.908     573.693     885.944
  H     1323.198     572.948     887.543
  P     1324.338     571.298     885.522
  C     1324.630     569.384     887.216
  O     1325.056     570.680     886.829
  C     1325.366     568.957     888.499
  O     1326.780     568.841     888.203
  C     1325.237     569.944     889.662
  O     1325.178     569.207     890.908
  C     1326.512     570.714     889.644
  O     1326.834     571.319     890.875
  C     1327.481     569.646     889.139
  N     1332.403     570.798     889.930
  C     1331.505     570.056     890.646
  N     1330.231     569.782     890.348
  C     1329.897     570.313     889.149
  C     1330.692     571.064     888.322
  C     1332.013     571.345     888.743
  N     1332.899     572.118     888.062
  N     1329.967     571.473     887.183
  C     1328.750     570.940     887.364
  N     1328.667     570.252     888.544
  O     1325.075     572.426     884.889
  O     1324.123     570.008     884.609
  H     1327.744     571.686     890.784
  H     1323.542     569.360     885.032
  H     1331.882     569.638     891.583
  H     1327.942     571.041     886.662
  H     1327.845     569.008     889.984
  H     1326.425     571.545     888.889
  H     1324.327     570.582     889.576
  H     1325.010     567.937     888.773
  H     1324.803     568.662     886.441
  H     1333.820     572.232     888.447
  H     1332.627     572.525     887.166
  H     1323.537     569.418     887.427
  P     1323.811     569.245     891.759
  C     1323.070     566.808     891.337
  O     1322.756     568.177     891.132
  O     1323.226     570.589     891.991
  O     1324.200     568.529     893.156
  H     1323.853     569.059     893.884
  H     1322.315     566.198     890.887
  H     1323.113     566.605     892.387
  H     1324.018     566.589     890.892

 6  7  8  9  10  11  12  13  14  15  25  28  32  33  34  35 0
 6-311+G(2d,p)
 ****
 36  39  40 0
 6-311+G(2d,p)
 ****
 1  2  3  4  5  16  17  18  19  20  21  22  23  24 0
 3-21G
 ****
 26  27  29  30  31  37  38  41  42  43  44  45  46  47 0
 3-21G
 ****
 48 0
 3-21G
 ****


