%nproc=1
%NoSave
%Mem=1900MB
#P OB98/GEN NMR

erre ene a

0 1
  C      393.320      59.083     351.207
  O      393.624      60.236     351.963
  H      393.602      58.200     351.787
  H      393.891      59.084     350.275
  H      392.250      59.030     350.988
  P      393.143      61.666     351.420
  C      390.732      62.228     350.690
  O      391.575      61.775     351.738
  C      389.256      61.984     351.039
  O      389.075      60.564     351.327
  C      388.762      62.762     352.275
  O      387.365      63.019     352.077
  C      388.987      61.732     353.368
  O      388.365      62.081     354.580
  C      388.480      60.477     352.639
  N      388.812      59.209     353.273
  C      387.763      58.426     353.748
  O      386.575      58.733     353.667
  N      388.123      57.246     354.346
  C      389.395      56.775     354.496
  O      389.652      55.694     355.012
  C      390.460      57.648     353.980
  C      390.130      58.802     353.397
  O      393.528      61.990     350.015
  O      393.788      62.699     352.462
  H      394.580      63.110     352.065
  H      387.467      62.430     354.390
  H      387.373      56.664     354.691
  H      391.483      57.312     354.092
  H      390.892      59.465     353.000
  H      387.395      60.538     352.506
  H      390.053      61.648     353.593
  H      389.289      63.707     352.429
  H      388.644      62.211     350.158
  H      390.988      61.675     349.781
  H      390.907      63.294     350.522
  P      386.728      64.490     352.083
  C      386.550      66.484     350.433
  O      386.902      65.114     350.607
  O      387.246      65.372     353.170
  O      385.149      64.272     352.223
  H      384.742      65.054     352.635
  H      386.712      66.767     349.414
  H      387.155      67.092     351.073
  H      385.518      66.621     350.681

 6  7  8  9  10  11  12  13  14  15  16  27  31  32  33  34  35 0
 6-311+G(2d,p)
 ****
 36  37 0
 6-311+G(2d,p)
 ****
 1  2  3  4  5  17  18  19  20  21  22  23  24  25 0
 3-21G
 ****
 26  28  29  30  38  39  40  41  42  43  44  45 0
 3-21G
 ****


