%nproc=1
%NoSave
%Mem=1900MB
#P OB98/GEN NMR

erre ene a

0 1
  C     2004.973    -291.397    -439.709
  O     2004.487    -290.512    -438.719
  H     2004.232    -292.184    -439.846
  H     2005.908    -291.860    -439.366
  H     2005.134    -290.874    -440.639
  P     2005.448    -289.301    -438.283
  C     2004.566    -287.823    -440.190
  O     2005.702    -288.478    -439.651
  C     2004.971    -287.037    -441.459
  O     2006.070    -286.149    -441.115
  C     2005.445    -287.905    -442.618
  O     2005.018    -287.306    -443.868
  C     2006.936    -287.839    -442.554
  O     2007.571    -288.138    -443.774
  C     2007.124    -286.425    -442.020
  N     2011.832    -284.498    -442.590
  C     2010.693    -284.365    -443.335
  N     2009.484    -284.885    -443.086
  C     2009.498    -285.581    -441.912
  C     2010.542    -285.798    -441.081
  C     2011.802    -285.245    -441.439
  N     2012.955    -285.413    -440.745
  N     2010.168    -286.616    -439.996
  C     2008.872    -286.860    -440.228
  N     2008.435    -286.273    -441.379
  O     2006.689    -289.690    -437.559
  O     2004.448    -288.344    -437.486
  H     2007.136    -287.595    -444.472
  H     2003.615    -288.217    -437.960
  H     2010.789    -283.757    -444.216
  H     2008.247    -287.449    -439.571
  H     2007.100    -285.672    -442.856
  H     2007.299    -288.585    -441.804
  H     2005.045    -288.950    -442.563
  H     2004.114    -286.390    -441.750
  H     2004.098    -287.167    -439.490
  H     2013.784    -284.956    -441.078
  H     2012.937    -285.953    -439.875
  H     2003.816    -288.601    -440.490
  P     2003.922    -288.081    -444.765
  C     2002.411    -285.984    -444.732
  O     2002.461    -287.396    -444.536
  O     2003.903    -289.565    -444.643
  O     2004.268    -287.621    -446.281
  H     2004.261    -288.402    -446.841
  H     2001.415    -285.635    -444.558
  H     2002.700    -285.753    -445.736
  H     2003.081    -285.505    -444.049

 6  7  8  9  10  11  12  13  14  15  25  28  32  33  34  35 0
 6-311+G(2d,p)
 ****
 36  39  40 0
 6-311+G(2d,p)
 ****
 1  2  3  4  5  16  17  18  19  20  21  22  23  24 0
 3-21G
 ****
 26  27  29  30  31  37  38  41  42  43  44  45  46  47 0
 3-21G
 ****
 48 0
 3-21G
 ****


