%nproc=1
%NoSave
%Mem=1900MB
#P OB98/GEN NMR

erre ene a

0 1
  C        6.734    -176.732    -208.792
  O        7.037    -177.259    -210.069
  H        6.789    -175.642    -208.840
  H        7.464    -177.088    -208.060
  H        5.724    -177.021    -208.484
  P        6.791    -178.828    -210.295
  C        8.593    -179.345    -212.101
  O        7.215    -179.144    -211.813
  C        8.758    -179.916    -213.510
  O        8.561    -178.840    -214.472
  C       10.139    -180.524    -213.780
  O        9.972    -181.667    -214.634
  C       10.857    -179.427    -214.547
  O       11.930    -179.897    -215.356
  C        9.697    -178.846    -215.363
  N        9.981    -177.498    -215.856
  C       10.174    -177.346    -217.228
  O       10.038    -178.247    -218.059
  N       10.540    -176.088    -217.639
  C       10.751    -175.006    -216.834
  O       11.099    -173.911    -217.258
  C       10.542    -175.229    -215.398
  C       10.175    -176.447    -214.982
  O        5.194    -178.941    -210.327
  O        7.408    -179.727    -209.276
  H        4.843    -179.087    -209.427
  H       12.376    -179.109    -215.736
  H       10.685    -175.965    -218.630
  H       10.708    -174.395    -214.723
  H       10.031    -176.650    -213.923
  H        9.451    -179.501    -216.205
  H       11.257    -178.687    -213.850
  H       10.684    -180.820    -212.877
  H        7.963    -180.654    -213.687
  H        9.016    -180.051    -211.376
  H        9.122    -178.387    -212.013
  P       10.545    -183.076    -214.110
  C       12.708    -183.291    -215.581
  O       11.363    -183.693    -215.345
  O        9.205    -183.942    -214.043
  O       11.295    -182.955    -212.823
  H        8.572    -183.728    -214.749
  H       13.088    -183.803    -216.440
  H       13.307    -183.532    -214.728
  H       12.740    -182.235    -215.752

 6  7  8  9  10  11  12  13  14  15  16  27  31  32  33  34  35 0
 6-311+G(2d,p)
 ****
 36  37 0
 6-311+G(2d,p)
 ****
 1  2  3  4  5  17  18  19  20  21  22  23  24  25 0
 3-21G
 ****
 26  28  29  30  38  39  40  41  42  43  44  45 0
 3-21G
 ****


