%nproc=1
%NoSave
%Mem=1900MB
#P OB98/GEN NMR

erre ene a

0 1
  C     -266.752     -47.929     413.870
  O     -266.534     -49.323     413.894
  P     -266.268     -50.085     415.282
  C     -267.537     -52.095     414.280
  O     -267.419     -51.200     415.385
  C     -268.766     -51.756     413.435
  O     -268.685     -50.402     412.944
  C     -268.935     -52.634     412.202
  O     -269.455     -53.900     412.561
  C     -269.875     -51.779     411.360
  O     -271.240     -51.953     411.767
  C     -269.386     -50.348     411.684
  N     -268.555     -49.792     410.622
  C     -269.243     -49.231     409.538
  O     -270.474     -49.256     409.502
  N     -268.517     -48.701     408.498
  C     -267.221     -48.754     408.532
  N     -266.557     -48.220     407.468
  C     -266.457     -49.361     409.640
  C     -267.182     -49.859     410.641
  O     -266.124     -49.202     416.475
  O     -264.958     -50.954     414.970
  H     -271.746     -51.236     411.336
  H     -264.148     -50.387     414.940
  H     -265.380     -49.389     409.615
  H     -266.705     -50.326     411.493
  H     -270.242     -49.678     411.835
  H     -269.819     -52.036     410.296
  H     -267.972     -52.740     411.688
  H     -269.651     -51.830     414.082
  H     -267.115     -47.839     406.716
  H     -267.633     -53.111     414.668
  H     -265.553     -48.238     407.375
  H     -266.623     -52.042     413.674
  P     -268.691     -55.230     412.109
  C     -268.945     -56.672     414.215
  O     -268.063     -55.908     413.417
  O     -267.751     -55.070     410.959
  O     -269.885     -56.231     411.726
  H     -269.665     -56.686     410.887
  H     -268.356     -57.332     414.857
  H     -269.611     -57.279     413.597
  H     -269.541     -56.002     414.847
  H     -266.909     -47.610     412.861
  H     -265.897     -47.427     414.274
  H     -267.615     -47.693     414.457

 3  4  5  6  7  8  9  10  11  12  13  23  27  28  29  30  32 0
 6-311+G(2d,p)
 ****
 34  35 0
 6-311+G(2d,p)
 ****
 1  2  14  15  16  17  18  19  20  21  22  24  25  26 0
 3-21G
 ****
 31  33  36  37  38  39  40  41  42  43  44  45  46 0
 3-21G
 ****


