%nproc=1
%NoSave
%Mem=1900MB
#P OB98/GEN NMR

erre ene a

0 1
  C       77.414    -377.721    -389.050
  O       76.758    -378.307    -390.176
  P       77.469    -378.238    -391.616
  C       75.237    -377.650    -392.741
  O       76.371    -378.506    -392.754
  C       74.030    -378.256    -393.478
  O       74.301    -378.343    -394.912
  C       73.643    -379.664    -393.014
  O       72.213    -379.749    -393.094
  C       74.301    -380.559    -394.048
  O       73.743    -381.864    -394.072
  C       74.074    -379.711    -395.310
  N       74.957    -380.105    -396.403
  C       74.383    -380.821    -397.458
  O       73.207    -381.189    -397.392
  N       75.169    -381.131    -398.537
  C       76.440    -380.873    -398.501
  N       77.181    -381.177    -399.614
  C       77.113    -380.283    -397.328
  C       76.314    -379.900    -396.340
  O       78.732    -379.037    -391.752
  O       77.769    -376.664    -391.787
  H       74.219    -382.406    -394.743
  H       78.611    -376.555    -392.277
  H       78.189    -380.170    -397.311
  H       76.707    -379.452    -395.440
  H       73.035    -379.789    -395.650
  H       75.377    -380.649    -393.827
  H       73.953    -379.881    -391.984
  H       73.174    -377.578    -393.355
  H       76.718    -381.608    -400.398
  H       75.499    -376.698    -393.212
  H       78.167    -380.971    -399.672
  H       74.972    -377.410    -391.697
  P       71.363    -379.969    -391.752
  C       69.910    -381.775    -392.930
  O       69.951    -380.593    -392.161
  O       70.970    -378.457    -391.360
  O       72.092    -380.609    -390.612
  H       70.803    -378.414    -390.400
  H       68.892    -382.200    -392.870
  H       70.617    -382.512    -392.554
  H       70.134    -381.547    -393.977
  H       76.810    -377.854    -388.177
  H       77.561    -376.676    -389.227
  H       78.362    -378.194    -388.904

 3  4  5  6  7  8  9  10  11  12  13  23  27  28  29  30  32 0
 6-311+G(2d,p)
 ****
 34  35 0
 6-311+G(2d,p)
 ****
 1  2  14  15  16  17  18  19  20  21  22  24  25  26 0
 3-21G
 ****
 31  33  36  37  38  39  40  41  42  43  44  45  46 0
 3-21G
 ****


