%nproc=1
%NoSave
%Mem=1900MB
#P OB98/GEN NMR

erre ene a

0 1
  C        4.640      56.622     531.425
  O        3.299      56.334     531.758
  H        4.743      57.698     531.279
  H        4.908      56.116     530.493
  H        5.313      56.307     532.227
  P        2.948      54.821     532.172
  C        1.940      54.124     529.883
  O        2.993      53.954     530.822
  C        1.853      52.913     528.953
  O        1.465      51.750     529.733
  C        0.840      53.081     527.817
  O        1.375      52.479     526.635
  C       -0.363      52.282     528.291
  O       -1.178      51.824     527.215
  C        0.306      51.169     529.109
  N       -0.612      50.601     530.090
  C       -1.207      49.379     529.764
  O       -0.956      48.836     528.685
  N       -2.112      48.829     530.635
  C       -2.461      49.482     531.697
  N       -3.387      48.897     532.506
  C       -1.912      50.804     532.047
  C       -0.997      51.294     531.213
  O        1.388      54.884     532.515
  O        3.757      54.262     533.295
  H       -1.913      51.293     527.585
  H        1.154      54.244     533.214
  H       -2.253      51.322     532.932
  H       -0.540      52.264     531.384
  H        0.656      50.361     528.444
  H       -0.986      52.908     528.943
  H        0.587      54.125     527.614
  H        2.858      52.712     528.554
  H       -3.755      47.995     532.216
  H        2.136      55.018     529.287
  H       -3.767      49.334     533.330
  H        0.994      54.261     530.421
  P        2.062      53.467     525.574
  C       -0.233      53.767     524.391
  O        0.918      54.396     524.943
  O        2.468      52.491     524.372
  O        3.249      54.193     526.116
  H        3.441      52.371     524.352
  H       -0.900      54.513     524.012
  H       -0.728      53.199     525.151
  H        0.063      53.116     523.595

 6  7  8  9  10  11  12  13  14  15  16  26  30  31  32  33  35 0
 6-311+G(2d,p)
 ****
 37  38 0
 6-311+G(2d,p)
 ****
 1  2  3  4  5  17  18  19  20  21  22  23  24  25 0
 3-21G
 ****
 27  28  29  34  36  39  40  41  42  43  44  45  46 0
 3-21G
 ****


