%nproc=1
%NoSave
%Mem=1900MB
#P OB98/GEN NMR

erre ene a

0 1
  C     -182.208     249.629    -427.471
  O     -181.893     250.927    -426.964
  P     -182.691     252.165    -427.602
  C     -184.517     252.336    -425.771
  O     -184.224     252.079    -427.137
  C     -186.014     252.585    -425.545
  O     -186.463     253.751    -426.284
  C     -186.899     251.411    -425.969
  O     -188.015     251.372    -425.077
  C     -187.390     251.831    -427.341
  O     -188.575     251.128    -427.704
  C     -187.559     253.345    -427.130
  N     -187.585     254.101    -428.381
  C     -188.776     254.080    -429.109
  O     -189.724     253.389    -428.730
  N     -188.855     254.806    -430.269
  C     -187.816     255.452    -430.695
  N     -187.956     256.152    -431.855
  C     -186.520     255.456    -429.989
  C     -186.481     254.769    -428.850
  O     -182.746     251.806    -429.161
  O     -182.031     253.485    -427.369
  H     -188.714     251.243    -428.668
  H     -182.453     252.572    -429.689
  H     -185.675     255.993    -430.391
  H     -185.577     254.713    -428.260
  H     -188.492     253.556    -426.591
  H     -186.620     251.633    -428.096
  H     -186.382     250.448    -425.959
  H     -186.166     252.794    -424.479
  H     -188.862     256.132    -432.305
  H     -183.956     253.209    -425.431
  H     -187.214     256.688    -432.277
  H     -184.165     251.493    -425.167
  P     -188.336     249.992    -424.324
  C     -188.057     250.865    -421.926
  O     -187.503     250.070    -422.955
  O     -187.456     248.951    -425.172
  O     -189.756     249.549    -424.227
  H     -187.621     248.046    -424.853
  H     -187.460     250.729    -421.020
  H     -189.086     250.560    -421.719
  H     -188.026     251.920    -422.210
  H     -181.613     248.896    -426.968
  H     -182.002     249.597    -428.521
  H     -183.245     249.423    -427.304

 3  4  5  6  7  8  9  10  11  12  13  21  23  27  28  29  30  32 0
 6-311+G(2d,p)
 ****
 34  35 0
 6-311+G(2d,p)
 ****
 1  2  14  15  16  17  18  19  20  22  24  25  26 0
 3-21G
 ****
 31  33  36  37  38  39  40  41  42  43  44  45  46 0
 3-21G
 ****


