%nproc=1
%NoSave
%Mem=1900MB
#P OB98/GEN NMR

erre ene a

0 1
  C      -49.681    -899.160      -6.296
  O      -50.439    -897.930      -6.212
  P      -49.843    -896.760      -5.304
  C      -51.751    -897.200      -3.548
  O      -50.363    -897.070      -3.811
  C      -52.000    -897.360      -2.050
  O      -51.266    -896.360      -1.296
  C      -53.446    -897.210      -1.627
  O      -54.216    -898.350      -1.983
  C      -53.296    -896.980      -0.141
  O      -53.102    -898.230       0.542
  C      -51.998    -896.140      -0.072
  N      -52.242    -894.720       0.166
  C      -51.141    -893.970       0.546
  O      -50.005    -894.450       0.676
  N      -51.367    -892.650       0.759
  C      -52.565    -892.000       0.676
  O      -52.713    -890.820       0.859
  C      -53.707    -892.870       0.323
  C      -53.504    -894.160       0.085
  O      -50.731    -895.520      -5.781
  O      -48.367    -896.590      -5.458
  H      -51.647    -895.770      -5.996
  H      -53.163    -898.030       1.500
  H      -50.567    -892.070       1.023
  H      -54.687    -892.400       0.278
  H      -54.332    -894.810      -0.162
  H      -51.343    -896.520       0.738
  H      -54.167    -896.490       0.298
  H      -53.878    -896.320      -2.095
  H      -51.623    -898.360      -1.762
  H      -52.144    -898.060      -4.082
  H      -52.274    -896.310      -3.940
  P      -55.214    -898.190      -3.244
  C      -57.243    -897.680      -1.683
  O      -56.418    -897.270      -2.750
  O      -55.838    -899.670      -3.327
  O      -54.529    -897.750      -4.498
  H      -56.092    -900.000      -2.443
  H      -57.753    -896.790      -1.275
  H      -56.656    -898.140      -0.887
  H      -57.982    -898.390      -2.054
  H      -50.192    -899.851      -6.933
  H      -49.579    -899.584      -5.319
  H      -48.711    -898.955      -6.699

 3  4  5  6  7  8  9  10  11  12  13  24  28  29  30  31  32 0
 6-311+G(2d,p)
 ****
 33  34 0
 6-311+G(2d,p)
 ****
 1  2  14  15  16  17  18  19  20  21  22  23  25  26  27 0
 3-21G
 ****
 35  36  37  38  39  40  41  42  43  44  45 0
 3-21G
 ****


