%nproc=1
%NoSave
%Mem=1900MB
#P OB98/GEN NMR

erre ene a

0 1
  C       46.731     -61.939      99.989
  O       48.024     -62.379     100.364
  P       48.809     -63.374      99.382
  C       47.119     -65.383      99.464
  O       48.388     -64.862      99.809
  C       46.622     -66.339     100.553
  O       45.310     -66.841     100.178
  C       47.527     -67.555     100.792
  O       47.475     -67.855     102.192
  C       46.843     -68.646      99.987
  O       47.191     -69.950     100.425
  C       45.371     -68.279     100.203
  N       44.475     -68.848      99.196
  C       43.913     -70.094      99.455
  O       44.141     -70.752     100.468
  N       43.084     -70.586      98.480
  C       42.823     -70.002      97.274
  O       42.086     -70.497      96.430
  C       43.483     -68.711      97.037
  C       44.256     -68.199      97.996
  O       50.306     -63.222      99.920
  O       48.623     -63.062      97.937
  H       50.354     -63.103     100.884
  H       46.950     -70.027     101.366
  H       42.636     -71.472      98.663
  H       43.312     -68.223      96.086
  H       44.755     -67.249      97.843
  H       45.048     -68.597     101.202
  H       47.128     -68.554      98.933
  H       48.562     -67.374     100.488
  H       46.498     -65.768     101.482
  H       47.194     -65.928      98.520
  H       46.415     -64.557      99.321
  P       48.824     -67.692     103.054
  C       49.419     -70.230     102.827
  O       49.175     -69.127     103.669
  O       48.254     -66.890     104.322
  O       49.930     -66.967     102.360
  H       47.448     -67.286     104.689
  H       49.955     -70.995     103.396
  H       50.027     -69.948     101.964
  H       48.469     -70.648     102.485
  H       46.344     -61.286     100.743
  H       46.084     -62.784      99.882
  H       46.789     -61.414      99.058

 3  4  5  6  7  8  9  10  11  12  13  24  28  29  30  31  32 0
 6-311+G(2d,p)
 ****
 33  34 0
 6-311+G(2d,p)
 ****
 1  2  14  15  16  17  18  19  20  21  22  23  25  26  27 0
 3-21G
 ****
 35  36  37  38  39  40  41  42  43  44  45 0
 3-21G
 ****


