%nproc=1
%NoSave
%Mem=1900MB
#P OB98/GEN NMR

erre ene a

0 1
  C      -37.303     -15.080      18.817
  O      -37.098     -15.826      20.021
  P      -38.095     -17.051      20.307
  C      -39.116     -18.074      22.492
  O      -38.280     -17.091      21.899
  C      -38.600     -18.428      23.885
  O      -37.330     -19.118      23.799
  C      -38.346     -17.224      24.779
  O      -39.560     -16.668      25.257
  C      -37.459     -17.842      25.851
  O      -38.255     -18.545      26.816
  C      -36.619     -18.844      25.031
  N      -35.263     -18.377      24.771
  C      -34.308     -18.738      25.716
  O      -34.572     -19.386      26.726
  N      -33.033     -18.306      25.470
  C      -32.636     -17.542      24.411
  O      -31.476     -17.194      24.237
  C      -33.700     -17.151      23.473
  C      -34.946     -17.579      23.691
  O      -37.151     -18.299      19.984
  O      -39.351     -16.979      19.506
  H      -36.224     -18.149      20.234
  H      -38.739     -17.863      27.324
  H      -32.323     -18.567      26.136
  H      -33.426     -16.523      22.635
  H      -35.744     -17.298      23.012
  H      -36.551     -19.802      25.561
  H      -36.873     -17.093      26.393
  H      -37.784     -16.461      24.226
  H      -39.327     -19.102      24.357
  H      -39.128     -18.977      21.874
  H      -40.139     -17.690      22.535
  P      -39.676     -15.064      25.253
  C      -41.918     -13.905      24.573
  O      -41.223     -14.721      25.488
  O      -39.438     -14.741      23.703
  O      -38.717     -14.392      26.178
  H      -39.926     -15.336      23.111
  H      -42.991     -14.071      24.699
  H      -41.647     -14.140      23.540
  H      -41.698     -12.854      24.777
  H      -36.574     -14.299      18.753
  H      -38.284     -14.653      18.825
  H      -37.204     -15.730      17.973

 3  4  5  6  7  8  9  10  11  12  13  24  28  29  30  31  32 0
 6-311+G(2d,p)
 ****
 33  34 0
 6-311+G(2d,p)
 ****
 1  2  14  15  16  17  18  19  20  21  22  23  25  26  27 0
 3-21G
 ****
 35  36  37  38  39  40  41  42  43  44  45 0
 3-21G
 ****


