%nproc=1
%NoSave
%Mem=1900MB
#P OB98/GEN NMR

erre ene a

0 1
  C      169.489    -290.763     -83.701
  O      169.164    -289.544     -83.059
  P      170.144    -288.935     -81.950
  C      170.920    -289.656     -79.571
  O      170.082    -289.912     -80.679
  C      170.664    -290.663     -78.445
  O      170.924    -291.991     -78.964
  C      171.571    -290.510     -77.228
  O      170.976    -291.195     -76.122
  C      172.814    -291.247     -77.674
  O      173.634    -291.636     -76.572
  C      172.235    -292.416     -78.513
  N      173.095    -292.739     -79.664
  C      174.175    -293.578     -79.422
  O      174.381    -294.109     -78.329
  N      175.059    -293.727     -80.453
  C      174.987    -293.084     -81.656
  O      175.924    -292.983     -82.432
  C      173.711    -292.404     -81.932
  C      172.845    -292.242     -80.930
  O      169.361    -287.626     -81.463
  O      171.515    -288.613     -82.436
  H      174.507    -291.899     -76.950
  H      169.694    -286.839     -81.935
  H      175.916    -294.219     -80.230
  H      173.548    -292.009     -82.927
  H      171.916    -291.698     -81.088
  H      172.118    -293.320     -77.908
  H      173.414    -290.587     -78.312
  H      171.788    -289.470     -76.958
  H      169.611    -290.618     -78.148
  H      170.752    -288.634     -79.222
  H      171.973    -289.715     -79.870
  P      170.722    -290.365     -74.774
  C      172.174    -288.828     -73.319
  O      172.165    -289.858     -74.280
  O      169.887    -291.038     -73.741
  O      170.038    -289.014     -75.302
  H      169.577    -288.567     -74.570
  H      173.074    -288.923     -72.704
  H      171.291    -288.874     -72.668
  H      172.194    -287.861     -73.826
  H      168.723    -291.010     -84.406
  H      169.567    -291.541     -82.971
  H      170.423    -290.659     -84.212

 3  4  5  6  7  8  9  10  11  12  13  23  28  29  30  31  32 0
 6-311+G(2d,p)
 ****
 33  34 0
 6-311+G(2d,p)
 ****
 1  2  14  15  16  17  18  19  20  21  22  24  25  26  27 0
 3-21G
 ****
 35  36  37  38  39  40  41  42  43  44  45 0
 3-21G
 ****


