%nproc=1
%NoSave
%Mem=1900MB
#P OB98/GEN NMR

erre ene a

0 1
  C      216.965    -585.291     155.339
  O      218.225    -585.310     155.978
  H      217.105    -585.003     154.295
  H      216.305    -584.565     155.820
  H      216.512    -586.286     155.374
  P      218.224    -585.604     157.558
  C      219.855    -587.535     156.918
  O      219.573    -586.446     157.785
  C      221.257    -588.069     157.187
  O      221.423    -588.377     158.595
  C      221.598    -589.363     156.455
  O      221.918    -589.168     155.091
  C      222.801    -589.815     157.260
  O      223.944    -589.008     156.911
  C      222.322    -589.511     158.698
  N      221.645    -590.654     159.327
  C      222.414    -591.809     159.512
  O      223.590    -591.849     159.155
  N      221.811    -592.915     160.068
  C      220.568    -592.864     160.430
  N      220.030    -593.989     160.972
  C      219.731    -591.661     160.265
  C      220.325    -590.606     159.714
  O      217.083    -586.714     157.726
  O      218.068    -584.413     158.446
  H      224.629    -589.203     157.573
  H      217.102    -587.076     158.649
  H      218.692    -591.669     160.569
  H      219.772    -589.685     159.561
  H      223.162    -589.206     159.337
  H      223.079    -590.853     157.083
  H      220.800    -590.107     156.563
  H      221.969    -587.275     156.942
  H      220.613    -594.814     161.016
  H      219.781    -587.178     155.883
  H      219.038    -594.097     161.145
  H      219.125    -588.335     157.070
  P      221.454    -590.305     154.051
  C      221.037    -588.369     152.363
  O      221.569    -589.670     152.584
  O      219.880    -590.401     154.298
  O      222.130    -591.626     154.229
  H      219.560    -591.316     154.176
  H      221.191    -588.089     151.342
  H      221.531    -587.668     153.003
  H      219.989    -588.371     152.578

 6  7  8  9  10  11  12  13  14  15  16  26  30  31  32  33  35 0
 6-311+G(2d,p)
 ****
 37  38 0
 6-311+G(2d,p)
 ****
 1  2  3  4  5  17  18  19  20  21  22  23  24  25 0
 3-21G
 ****
 27  28  29  34  36  39  40  41  42  43  44  45  46 0
 3-21G
 ****


