%nproc=1
%NoSave
%Mem=1900MB
#P OB98/GEN NMR

erre ene a

0 1
  C       74.428      22.274    -116.049
  O       74.281      23.012    -114.856
  H       73.440      22.119    -116.490
  H       74.870      21.299    -115.832
  H       75.054      22.816    -116.763
  P       75.620      23.494    -114.114
  C       76.679      25.808    -114.629
  O       75.576      25.100    -114.084
  C       76.861      27.145    -113.908
  O       75.627      27.902    -114.009
  C       77.205      27.003    -112.424
  O       78.149      28.017    -112.073
  C       75.887      27.272    -111.721
  O       76.062      27.744    -110.386
  C       75.227      28.275    -112.675
  N       73.774      28.279    -112.527
  C       73.204      29.423    -111.957
  O       73.922      30.358    -111.601
  N       71.851      29.457    -111.754
  C       71.134      28.407    -112.013
  N       69.800      28.493    -111.758
  C       71.702      27.154    -112.550
  C       73.012      27.164    -112.789
  O       76.770      23.180    -115.182
  O       75.883      22.857    -112.792
  H       75.178      27.808    -109.962
  H       77.609      22.950    -114.741
  H       71.067      26.299    -112.726
  H       73.518      26.289    -113.176
  H       75.603      29.290    -112.489
  H       75.299      26.347    -111.676
  H       77.615      26.020    -112.168
  H       77.632      27.719    -114.434
  H       69.453      29.363    -111.372
  H       76.491      25.999    -115.690
  H       69.157      27.724    -111.877
  H       77.585      25.198    -114.537
  P       79.681      27.562    -111.941
  C       81.188      25.790    -113.095
  O       80.027      26.604    -113.178
  O       79.666      26.573    -110.683
  O       80.628      28.700    -111.738
  H       80.101      26.998    -109.921
  H       81.283      25.212    -113.990
  H       81.104      25.134    -112.254
  H       82.051      26.411    -112.978

 6  7  8  9  10  11  12  13  14  15  16  26  30  31  32  33  35 0
 6-311+G(2d,p)
 ****
 37  38 0
 6-311+G(2d,p)
 ****
 1  2  3  4  5  17  18  19  20  21  22  23  24  25 0
 3-21G
 ****
 27  28  29  34  36  39  40  41  42  43  44  45  46 0
 3-21G
 ****


