%nproc=1
%NoSave
%Mem=1900MB
#P OB98/GEN NMR

erre ene a

0 1
  C      -51.105     -80.644    -141.661
  O      -52.087     -80.814    -142.692
  P      -52.303     -79.612    -143.731
  C      -50.007     -79.495    -144.949
  O      -51.375     -79.870    -145.013
  C      -49.576     -78.817    -146.253
  O      -48.198     -78.394    -146.206
  C      -49.680     -79.718    -147.474
  O      -51.006     -79.761    -147.980
  C      -48.766     -78.996    -148.453
  O      -49.464     -77.881    -149.041
  C      -47.643     -78.495    -147.538
  N      -42.607     -78.844    -148.407
  C      -43.484     -77.830    -148.580
  N      -44.813     -77.819    -148.345
  C      -45.219     -79.005    -147.864
  C      -44.442     -80.129    -147.637
  C      -43.074     -80.021    -147.929
  N      -42.185     -81.056    -147.750
  N      -45.212     -81.166    -147.151
  C      -46.430     -80.670    -147.072
  N      -46.487     -79.371    -147.501
  O      -51.591     -78.375    -143.006
  O      -53.737     -79.320    -144.027
  H      -49.724     -77.289    -148.310
  H      -52.072     -77.551    -143.209
  H      -43.063     -76.903    -148.960
  H      -47.297     -81.208    -146.712
  H      -47.286     -77.498    -147.824
  H      -48.442     -79.637    -149.277
  H      -49.285     -80.719    -147.259
  H      -50.205     -77.928    -146.397
  H      -49.385     -80.375    -144.761
  H      -41.213     -80.895    -147.955
  H      -42.524     -81.929    -147.372
  H      -49.861     -78.827    -144.094
  P      -51.722     -81.196    -148.043
  C      -51.394     -81.920    -145.570
  O      -52.285     -81.464    -146.568
  O      -50.487     -82.207    -148.179
  O      -52.698     -81.349    -149.158
  H      -50.758     -82.998    -148.682
  H      -51.852     -81.759    -144.590
  H      -50.447     -81.377    -145.607
  H      -51.209     -82.990    -145.702
  H      -51.074     -81.522    -141.050
  H      -51.363     -79.799    -141.058
  H      -50.145     -80.485    -142.106

 3  4  5  6  7  8  9  10  11  12  22  25  29  30  31  32 0
 6-311+G(2d,p)
 ****
 33  36  37 0
 6-311+G(2d,p)
 ****
 1  2  13  14  15  16  17  18  19  20  21  23  24  26 0
 3-21G
 ****
 27  28  34  35  38  39  40  41  42  43  44  45  46  47  48 0
 3-21G
 ****


