%nproc=1
%NoSave
%Mem=1900MB
#P OB98/GEN NMR

erre ene a

0 1
  C     -198.216      -7.487      -5.687
  O     -197.550      -6.241      -5.672
  H     -199.272      -7.358      -5.430
  H     -198.145      -7.911      -6.693
  H     -197.741      -8.174      -4.980
  P     -197.633      -5.406      -4.303
  C     -199.533      -4.161      -3.054
  O     -199.081      -4.710      -4.282
  C     -200.476      -2.993      -3.315
  O     -199.811      -1.980      -4.095
  C     -201.730      -3.350      -4.104
  O     -202.714      -3.969      -3.288
  C     -202.173      -1.969      -4.567
  O     -202.876      -1.304      -3.500
  C     -200.836      -1.263      -4.834
  N     -201.491       1.130      -9.331
  C     -202.019       1.351      -8.106
  N     -201.810       0.670      -6.963
  C     -200.937      -0.333      -7.157
  C     -200.317      -0.679      -8.346
  C     -200.628       0.097      -9.474
  N     -200.097      -0.147     -10.723
  N     -199.475      -1.754      -8.161
  C     -199.583      -2.055      -6.882
  N     -200.462      -1.227      -6.235
  O     -196.637      -4.176      -4.554
  O     -197.268      -6.162      -3.071
  H     -202.197      -0.979      -2.879
  H     -196.188      -3.956      -3.716
  H     -202.704       2.195      -8.035
  H     -199.044      -2.852      -6.386
  H     -200.841      -0.235      -4.455
  H     -202.842      -2.000      -5.431
  H     -201.488      -3.964      -4.979
  H     -200.741      -2.550      -2.345
  H     -198.673      -3.805      -2.476
  H     -200.199       0.552     -11.437
  H     -199.443      -0.920     -10.817
  H     -200.044      -4.945      -2.484
  P     -203.580      -5.154      -3.943
  C     -205.268      -5.261      -5.910
  O     -204.576      -4.439      -4.977
  O     -204.547      -5.599      -2.746
  O     -202.788      -6.300      -4.472
  H     -204.824      -6.527      -2.874
  H     -205.891      -4.651      -6.530
  H     -205.874      -5.968      -5.382
  H     -204.560      -5.783      -6.519

 6  7  8  9  10  11  12  13  14  15  25  28  32  33  34  35 0
 6-311+G(2d,p)
 ****
 36  39  40 0
 6-311+G(2d,p)
 ****
 1  2  3  4  5  16  17  18  19  20  21  22  23  24 0
 3-21G
 ****
 26  27  29  30  31  37  38  41  42  43  44  45  46  47  48 0
 3-21G
 ****


