%nproc=1
%NoSave
%Mem=1900MB
#P OB98/GEN NMR

erre ene a

0 1
  C      164.203    -543.913    -385.550
  O      165.609    -544.124    -385.493
  P      166.541    -542.855    -385.139
  C      167.655    -544.251    -383.252
  O      167.840    -543.421    -384.390
  C      168.884    -544.235    -382.347
  O      169.966    -544.963    -383.017
  C      169.434    -542.833    -382.021
  O      169.942    -542.882    -380.689
  C      170.535    -542.665    -383.039
  O      171.461    -541.626    -382.738
  C      171.107    -544.080    -383.036
  N      175.857    -545.143    -384.678
  C      175.338    -544.990    -383.424
  N      174.069    -544.715    -383.070
  C      173.290    -544.604    -384.168
  C      173.667    -544.715    -385.481
  C      175.028    -545.002    -385.727
  N      175.554    -545.146    -386.999
  N      172.583    -544.529    -386.327
  C      171.572    -544.286    -385.519
  N      171.937    -544.347    -384.220
  O      165.730    -542.122    -383.960
  O      166.814    -541.936    -386.287
  H      171.677    -541.633    -381.787
  H      165.769    -541.159    -384.045
  H      176.040    -545.094    -382.598
  H      170.563    -544.056    -385.845
  H      171.713    -544.287    -382.150
  H      170.112    -542.421    -384.012
  H      168.656    -542.059    -382.070
  H      168.645    -544.787    -381.423
  H      167.476    -545.282    -383.579
  H      176.555    -545.134    -387.074
  H      174.971    -544.837    -387.771
  H      166.756    -543.914    -382.699
  P      169.075    -542.255    -379.499
  C      168.933    -544.562    -378.343
  O      169.384    -543.220    -378.226
  O      167.590    -542.735    -379.892
  O      169.217    -540.784    -379.278
  H      167.566    -543.690    -380.088
  H      169.303    -545.121    -377.476
  H      169.317    -545.021    -379.257
  H      167.827    -544.585    -378.347
  H      163.714    -544.833    -385.793
  H      163.982    -543.183    -386.300
  H      163.856    -543.564    -384.600

 3  4  5  6  7  8  9  10  11  12  22  25  29  30  31  32 0
 6-311+G(2d,p)
 ****
 33  36  37 0
 6-311+G(2d,p)
 ****
 1  2  13  14  15  16  17  18  19  20  21  23  24  26 0
 3-21G
 ****
 27  28  34  35  38  39  40  41  42  43  44  45  46  47  48 0
 3-21G
 ****


