%nproc=1
%NoSave
%Mem=1900MB
#P OB98/GEN NMR

erre ene a

0 1
  C     -376.681    -488.738      34.797
  O     -375.629    -489.633      34.453
  P     -375.373    -490.911      35.388
  C     -376.271    -492.909      33.903
  O     -376.414    -492.065      35.024
  C     -377.061    -492.325      32.724
  O     -376.545    -491.024      32.368
  C     -376.999    -493.190      31.466
  O     -377.994    -494.198      31.465
  C     -377.172    -492.160      30.370
  O     -378.558    -491.791      30.246
  C     -376.345    -490.980      30.923
  N     -374.891    -490.958      30.650
  C     -374.332    -489.883      29.964
  O     -374.967    -488.915      29.559
  N     -372.976    -489.934      29.768
  C     -372.115    -490.838      30.317
  O     -370.903    -490.802      30.155
  C     -372.737    -491.870      31.152
  C     -374.069    -491.891      31.266
  O     -375.836    -490.419      36.836
  O     -373.957    -491.399      35.387
  H     -378.803    -491.318      31.062
  H     -375.075    -490.398      37.446
  H     -372.565    -489.203      29.217
  H     -372.090    -492.581      31.647
  H     -374.542    -492.655      31.885
  H     -376.747    -490.023      30.567
  H     -376.883    -492.564      29.401
  H     -375.998    -493.627      31.361
  H     -378.107    -492.199      33.034
  H     -376.624    -493.917      34.128
  H     -375.209    -492.999      33.642
  P     -377.906    -495.408      32.511
  C     -380.367    -495.263      33.219
  O     -379.019    -495.099      33.622
  O     -376.548    -495.728      33.030
  O     -378.551    -496.639      31.709
  H     -377.848    -497.187      31.288
  H     -381.008    -495.179      34.102
  H     -380.512    -496.250      32.764
  H     -380.641    -494.485      32.506
  H     -376.722    -487.944      34.081
  H     -376.500    -488.332      35.770
  H     -377.612    -489.266      34.798

 3  4  5  6  7  8  9  10  11  12  13  23  28  29  30  31  32 0
 6-311+G(2d,p)
 ****
 33  34 0
 6-311+G(2d,p)
 ****
 1  2  14  15  16  17  18  19  20  21  22  24  25  26  27 0
 3-21G
 ****
 35  36  37  38  39  40  41  42  43  44  45 0
 3-21G
 ****


