%nproc=1
%NoSave
%Mem=1900MB
#P OB98/GEN NMR

erre ene a

0 1
  C     -276.272      72.850    -107.781
  O     -276.359      74.259    -108.023
  P     -277.766      74.799    -108.589
  C     -279.277      75.535    -106.605
  O     -278.310      75.922    -107.575
  C     -279.522      76.637    -105.567
  O     -278.315      76.834    -104.789
  C     -279.905      78.000    -106.159
  O     -280.866      78.618    -105.289
  C     -278.616      78.799    -106.055
  O     -278.857      80.207    -106.052
  C     -278.053      78.246    -104.747
  N     -274.476      81.787    -104.218
  C     -275.850      81.915    -104.223
  N     -276.339      83.170    -104.089
  N     -276.674      80.908    -104.346
  C     -276.046      79.707    -104.439
  C     -274.689      79.449    -104.437
  C     -273.790      80.583    -104.344
  O     -272.566      80.539    -104.388
  N     -274.439      78.105    -104.553
  C     -275.632      77.551    -104.630
  N     -276.639      78.487    -104.574
  O     -278.750      73.557    -108.360
  O     -277.722      75.203    -110.025
  H     -279.530      80.382    -105.364
  H     -279.163      73.299    -109.205
  H     -273.886      82.599    -104.144
  H     -275.826      76.495    -104.752
  H     -278.578      78.662    -103.880
  H     -277.972      78.563    -106.910
  H     -275.765      83.980    -103.927
  H     -280.296      77.958    -107.179
  H     -277.345      83.279    -104.043
  H     -280.300      76.289    -104.878
  H     -278.933      74.631    -106.094
  H     -280.213      75.290    -107.122
  P     -282.412      78.324    -105.612
  C     -283.276      76.918    -103.601
  O     -283.138      78.195    -104.186
  O     -282.395      76.821    -106.166
  O     -283.030      79.282    -106.580
  H     -283.149      76.674    -106.769
  H     -282.684      76.157    -104.117
  H     -284.331      76.625    -103.633
  H     -282.949      76.969    -102.557
  H     -275.297      72.611    -107.409
  H     -276.445      72.320    -108.694
  H     -277.009      72.566    -107.059

 3  4  5  6  7  8  9  10  11  12  23  26  30  31  33  0
 6-311+G(2d,p)
 ****
 35  36  37  38 0
 6-311+G(2d,p)
 ****
 1  2  13  14  15  16  17  18  19  20  21  22  24  25  27  28  29 0
 3-21G
 ****
 32  34  39  40  41  42  43  44  45  46  47  48  49 0
 3-21G
 ****


