%nproc=1
%NoSave
%Mem=1900MB
#P OB98/GEN NMR

erre ene a

0 1
  C      238.357     300.504      83.383
  O      239.152     301.647      83.651
  P      239.448     302.029      85.180
  C      240.741     300.865      87.105
  O      239.967     300.706      85.925
  C      240.700     299.598      87.961
  O      239.344     299.373      88.432
  C      241.133     298.335      87.209
  O      241.801     297.445      88.116
  C      239.820     297.685      86.823
  O      239.977     296.283      86.597
  C      238.956     298.044      88.034
  N      234.452     296.539      89.758
  C      235.645     296.687      90.437
  N      235.655     296.298      91.730
  N      236.733     297.179      89.899
  C      236.573     297.517      88.595
  C      235.439     297.434      87.820
  C      234.249     296.875      88.428
  O      233.168     296.692      87.876
  N      235.658     297.908      86.556
  C      236.935     298.242      86.542
  N      237.540     297.987      87.746
  O      237.979     302.246      85.780
  O      240.287     303.246      85.367
  H      240.543     296.188      85.805
  H      237.809     303.201      85.901
  H      233.647     296.141      90.217
  H      237.469     298.643      85.693
  H      239.157     297.372      88.880
  H      239.434     298.139      85.905
  H      234.873     295.848      92.186
  H      241.780     298.523      86.343
  H      236.531     296.351      92.238
  H      241.324     299.752      88.849
  H      240.341     301.700      87.683
  H      241.777     301.103      86.837
  P      242.870     296.440      87.460
  C      244.994     296.783      86.004
  O      243.829     297.351      86.563
  O      241.998     295.632      86.390
  O      243.547     295.541      88.439
  H      242.398     294.756      86.220
  H      244.917     296.809      84.914
  H      245.151     295.745      86.324
  H      245.863     297.375      86.314
  H      238.251     300.383      82.325
  H      237.391     300.630      83.826
  H      238.829     299.637      83.796

 3  4  5  6  7  8  9  10  11  12  23  26  30  31 0
 6-311+G(2d,p)
 ****
 33  35  36  37  38 0
 6-311+G(2d,p)
 ****
 1  2  13  14  15  16  17  18  19  20  21  22  24  25 0
 3-21G
 ****
 27  28  29  32  34  39  40  41  42  43  44  45  46  47  48  49 0
 3-21G
 ****


