%nproc=1
%NoSave
%Mem=1900MB
#P OB98/GEN NMR

erre ene a

0 1
  C      100.525      64.600     -85.192
  O       99.743      65.704     -85.596
  P      100.093      66.609     -86.865
  C      101.152      68.354     -85.258
  O      101.290      67.603     -86.459
  C      102.475      68.511     -84.494
  O      102.954      67.212     -84.091
  C      103.548      69.102     -85.413
  O      103.625      70.499     -85.611
  C      104.850      68.441     -84.978
  O      105.617      69.267     -84.102
  C      104.381      67.179     -84.252
  N      108.029      63.760     -85.089
  C      107.953      64.727     -84.107
  N      109.077      64.924     -83.383
  N      106.884      65.445     -83.879
  C      105.874      65.200     -84.747
  C      105.828      64.259     -85.749
  C      107.000      63.445     -85.964
  O      107.137      62.635     -86.877
  N      104.669      64.345     -86.476
  C      104.029      65.365     -85.942
  N      104.739      65.941     -84.916
  O       98.939      67.157     -87.639
  O      100.848      65.543     -87.814
  H      105.050      69.517     -83.351
  H      100.630      65.770     -88.739
  H      108.908      63.292     -85.270
  H      103.073      65.746     -86.280
  H      104.807      67.133     -83.243
  H      105.488      68.235     -85.845
  H      109.957      64.494     -83.626
  H      103.354      68.705     -86.418
  H      109.112      65.734     -82.775
  H      102.330      69.074     -83.568
  H      100.406      67.847     -84.638
  H      100.754      69.345     -85.491
  P      103.557      71.267     -87.012
  C      106.085      71.642     -86.929
  O      104.996      71.179     -87.707
  O      103.449      72.813     -86.611
  O      102.412      70.876     -87.888
  H      103.057      73.317     -87.348
  H      106.940      71.822     -87.585
  H      106.357      70.882     -86.191
  H      105.831      72.573     -86.413
  H      100.091      64.155     -84.321
  H      101.518      64.929     -84.968
  H      100.558      63.879     -85.982

 3  4  5  6  7  8  9  10  11  12  23  26  30  31 0
 6-311+G(2d,p)
 ****
 33  35  36  37  38 0
 6-311+G(2d,p)
 ****
 1  2  13  14  15  16  17  18  19  20  21  22  24  25 0
 3-21G
 ****
 27  28  29  32  34  39  40  41  42  43  44  45  46  47  48  49 0
 3-21G
 ****


