%nproc=1
%NoSave
%Mem=1900MB
#P OB98/GEN NMR

erre ene a

0 1
  C     -154.108    -511.239     490.750
  O     -153.962    -512.013     491.921
  P     -153.162    -511.527     493.214
  C     -150.691    -511.719     494.037
  O     -151.591    -511.715     492.939
  C     -149.637    -512.823     493.880
  O     -150.293    -514.114     494.004
  C     -148.997    -512.796     492.475
  O     -147.592    -513.016     492.474
  C     -149.854    -513.779     491.687
  O     -149.222    -514.273     490.510
  C     -150.193    -514.820     492.752
  N     -152.528    -518.443     490.057
  C     -151.182    -518.169     490.156
  N     -150.371    -518.808     489.285
  N     -150.677    -517.303     491.000
  C     -151.615    -516.644     491.725
  C     -152.980    -516.835     491.717
  C     -153.514    -517.828     490.806
  O     -154.712    -518.024     490.607
  N     -153.625    -515.945     492.540
  C     -152.651    -515.193     493.015
  N     -151.418    -515.552     492.523
  O     -153.700    -511.957     494.539
  O     -153.336    -509.923     493.115
  H     -148.455    -514.806     490.789
  H     -153.383    -509.578     494.035
  H     -152.863    -519.065     489.333
  H     -152.791    -514.352     493.693
  H     -149.403    -515.568     492.842
  H     -150.754    -513.243     491.364
  H     -150.746    -519.371     488.523
  H     -149.096    -511.802     492.030
  H     -149.432    -518.446     489.158
  H     -148.890    -512.743     494.683
  H     -151.290    -511.904     494.935
  H     -150.210    -510.744     494.151
  P     -146.555    -512.896     491.255
  C     -145.649    -514.455     489.438
  O     -146.720    -514.183     490.318
  O     -145.111    -513.120     491.910
  O     -146.594    -511.589     490.525
  H     -144.473    -512.511     491.496
  H     -145.987    -515.167     488.672
  H     -144.817    -514.901     489.986
  H     -145.319    -513.538     488.935
  H     -154.684    -511.784     490.032
  H     -153.142    -511.022     490.343
  H     -154.609    -510.324     490.988

 3  4  5  6  7  8  9  10  11  12  23  26  30  31 0
 6-311+G(2d,p)
 ****
 33  35  36  37  38 0
 6-311+G(2d,p)
 ****
 1  2  13  14  15  16  17  18  19  20  21  22  24  25 0
 3-21G
 ****
 27  28  29  32  34  39  40  41  42  43  44  45  46  47  48  49 0
 3-21G
 ****


