%nproc=1
%NoSave
%Mem=1900MB
#P OB98/GEN NMR

erre ene a

0 1
  C      117.700    -263.936      27.533
  O      116.883    -262.947      28.182
  P      115.360    -262.755      27.707
  C      113.370    -264.448      27.549
  O      114.485    -263.967      28.287
  C      112.632    -265.524      28.349
  O      113.509    -266.640      28.624
  C      112.134    -265.064      29.712
  O      110.967    -264.268      29.609
  C      111.899    -266.399      30.411
  O      110.620    -266.949      30.052
  C      113.042    -267.262      29.843
  N      114.133    -267.452      30.795
  C      114.340    -268.751      31.247
  O      113.624    -269.698      30.927
  N      115.386    -268.922      32.115
  C      116.183    -267.931      32.615
  O      117.094    -268.145      33.406
  C      115.863    -266.568      32.164
  C      114.867    -266.394      31.295
  O      115.448    -263.127      26.150
  O      114.791    -261.387      27.892
  H      110.436    -267.668      30.689
  H      114.750    -262.652      25.660
  H      115.573    -269.860      32.431
  H      116.457    -265.752      32.556
  H      114.618    -265.394      30.951
  H      112.661    -268.247      29.550
  H      111.914    -266.307      31.502
  H      112.929    -264.522      30.235
  H      111.795    -265.890      27.738
  H      113.720    -264.878      26.608
  H      112.703    -263.608      27.326
  P      111.180    -262.675      29.596
  C      112.397    -261.052      27.945
  O      112.056    -262.380      28.287
  O      112.191    -262.493      30.826
  O      109.902    -261.912      29.722
  H      112.796    -263.249      30.916
  H      112.539    -260.431      28.834
  H      111.604    -260.624      27.326
  H      113.328    -261.065      27.371
  H      118.678    -263.932      27.968
  H      117.773    -263.710      26.490
  H      117.258    -264.902      27.659

 3  4  5  6  7  8  9  10  11  12  13  23  28  29  30  31  32 0
 6-311+G(2d,p)
 ****
 33  34 0
 6-311+G(2d,p)
 ****
 1  2  14  15  16  17  18  19  20  21  22  24  25  26 0
 3-21G
 ****
 27  35  36  37  38  39  40  41  42  43  44  45 0
 3-21G
 ****


