%nproc=1
%NoSave
%Mem=1900MB
#P OB98/GEN NMR

erre ene a

0 1
  C      -53.387     -33.582     -68.714
  O      -53.397     -32.320     -69.358
  P      -53.385     -32.323     -70.966
  C      -51.220     -31.247     -71.954
  O      -51.846     -32.394     -71.403
  C      -50.589     -30.416     -70.836
  O      -49.726     -31.239     -70.027
  C      -49.735     -29.255     -71.325
  O      -50.549     -28.145     -71.656
  C      -48.829     -29.017     -70.122
  O      -49.502     -28.236     -69.117
  C      -48.572     -30.448     -69.628
  N      -43.543     -30.636     -69.174
  C      -44.457     -29.783     -68.585
  N      -43.959     -28.878     -67.715
  N      -45.740     -29.816     -68.824
  C      -46.093     -30.763     -69.725
  C      -45.281     -31.655     -70.386
  C      -43.871     -31.641     -70.072
  O      -43.036     -32.438     -70.491
  N      -45.998     -32.448     -71.243
  C      -47.245     -32.056     -71.074
  N      -47.359     -31.051     -70.150
  O      -53.828     -30.833     -71.333
  O      -54.255     -33.358     -71.606
  H      -49.726     -27.363     -69.486
  H      -54.778     -30.799     -71.556
  H      -42.568     -30.575     -68.937
  H      -48.098     -32.481     -71.580
  H      -48.509     -30.501     -68.535
  H      -47.923     -28.466     -70.392
  H      -42.980     -28.778     -67.499
  H      -49.131     -29.561     -72.187
  H      -44.613     -28.241     -67.276
  H      -51.400     -30.052     -70.192
  H      -51.970     -30.643     -72.473
  H      -50.461     -31.565     -72.676
  P      -49.843     -26.897     -72.376
  C      -49.244     -24.715     -71.106
  O      -49.024     -26.104     -71.254
  O      -51.071     -25.926     -72.716
  O      -49.073     -27.248     -73.605
  H      -50.907     -25.479     -73.567
  H      -49.068     -24.441     -70.063
  H      -50.265     -24.434     -71.380
  H      -48.539     -24.171     -71.740
  H      -53.397     -33.441     -67.653
  H      -52.505     -34.119     -68.995
  H      -54.252     -34.139     -69.008

 3  4  5  6  7  8  9  10  11  12  23  26  30  31 0
 6-311+G(2d,p)
 ****
 33  35  36  37  38 0
 6-311+G(2d,p)
 ****
 1  2  13  14  15  16  17  18  19  20  21  22  24  25 0
 3-21G
 ****
 27  28  29  32  34  39  40  41  42  43  44  45  46  47  48  49 0
 3-21G
 ****


