%nproc=1
%NoSave
%Mem=1900MB
#P OB98/GEN NMR

erre ene a

0 1
  C     1114.373    -212.489     -34.613
  O     1115.779    -212.613     -34.469
  P     1116.725    -212.566     -35.761
  C     1118.232    -210.660     -34.834
  O     1118.143    -211.996     -35.286
  C     1119.682    -210.299     -34.450
  O     1119.964    -210.916     -33.177
  C     1120.740    -210.824     -35.412
  O     1121.951    -210.088     -35.192
  C     1120.925    -212.255     -34.937
  O     1122.158    -212.813     -35.360
  C     1120.744    -212.119     -33.398
  N     1120.056    -213.290     -32.835
  C     1120.805    -214.459     -32.714
  O     1122.003    -214.523     -32.984
  N     1120.108    -215.583     -32.345
  C     1118.757    -215.638     -32.143
  O     1118.118    -216.689     -32.128
  C     1118.066    -214.347     -32.051
  C     1118.735    -213.244     -32.422
  O     1116.095    -211.364     -36.624
  O     1116.782    -213.832     -36.542
  H     1122.202    -213.730     -34.999
  H     1115.490    -211.724     -37.296
  H     1120.618    -216.452     -32.405
  H     1117.032    -214.338     -31.742
  H     1118.240    -212.281     -32.415
  H     1121.714    -212.010     -32.888
  H     1120.110    -212.869     -35.353
  H     1120.459    -210.776     -36.467
  H     1119.765    -209.215     -34.333
  H     1117.562    -210.519     -33.980
  H     1117.894    -209.973     -35.615
  P     1123.023    -210.030     -36.385
  C     1123.652    -207.543     -36.363
  O     1124.042    -208.851     -36.012
  O     1122.455    -209.978     -37.763
  O     1123.904    -211.350     -36.148
  H     1124.380    -211.568     -36.961
  H     1124.108    -206.837     -35.650
  H     1122.569    -207.421     -36.326
  H     1124.015    -207.312     -37.363
  H     1113.910    -212.543     -33.650
  H     1114.006    -213.282     -35.230
  H     1114.143    -211.548     -35.067

 3  4  5  6  7  8  9  10  11  12  13  23  28  29  30  31  32 0
 6-311+G(2d,p)
 ****
 33  34 0
 6-311+G(2d,p)
 ****
 1  2  14  15  16  17  18  19  20  21  22  24  25  26  27 0
 3-21G
 ****
 35  36  37  38  39  40  41  42  43  44  45 0
 3-21G
 ****


