%nproc=1
%NoSave
%Mem=1900MB
#P OB98/GEN NMR

erre ene a

0 1
  C      282.847    -217.083     -29.590
  O      284.235    -217.155     -29.342
  H      282.383    -218.014     -29.260
  H      282.668    -216.967     -30.663
  H      282.389    -216.253     -29.047
  P      285.115    -215.821     -29.460
  C      286.816    -216.456     -31.291
  O      286.587    -216.286     -29.901
  C      287.905    -217.503     -31.542
  O      287.316    -218.832     -31.423
  C      288.552    -217.413     -32.933
  O      289.909    -217.858     -32.803
  C      287.736    -218.420     -33.719
  O      288.393    -218.802     -34.908
  C      287.550    -219.518     -32.668
  N      286.461    -220.436     -33.004
  C      286.682    -221.294     -34.073
  O      287.715    -221.288     -34.745
  N      285.657    -222.144     -34.385
  C      284.431    -222.167     -33.782
  O      283.534    -222.930     -34.123
  C      284.240    -221.207     -32.685
  C      285.249    -220.397     -32.346
  O      285.075    -214.912     -28.278
  O      284.567    -215.104     -30.783
  H      287.756    -219.217     -35.530
  H      284.660    -214.135     -30.702
  H      285.803    -222.780     -35.153
  H      283.276    -221.194     -32.191
  H      285.137    -219.679     -31.545
  H      288.469    -220.112     -32.556
  H      286.768    -217.997     -34.003
  H      288.517    -216.407     -33.359
  H      288.661    -217.422     -30.750
  H      287.130    -215.490     -31.702
  H      285.885    -216.765     -31.781
  P      291.157    -216.887     -33.076
  C      292.755    -218.626     -34.104
  O      292.510    -217.749     -33.009
  O      291.172    -215.657     -32.224
  O      291.040    -216.498     -34.624
  H      291.439    -215.620     -34.777
  H      293.679    -219.143     -33.947
  H      292.812    -218.059     -35.009
  H      291.958    -219.336     -34.178

 6  7  8  9  10  11  12  13  14  15  16  26  31  32  33  34  35 0
 6-311+G(2d,p)
 ****
 36  37 0
 6-311+G(2d,p)
 ****
 1  2  3  4  5  17  18  19  20  21  22  23  24  25 0
 3-21G
 ****
 27  28  29  30  38  39  40  41  42  43  44  45 0
 3-21G
 ****


