%nproc=1
%NoSave
%Mem=1900MB
#P OB98/GEN NMR

erre ene a

0 1
  C       41.199    -852.128      97.044
  O       42.459    -852.683      96.729
  H       40.649    -852.844      97.661
  H       40.630    -851.938      96.128
  H       41.328    -851.196      97.608
  P       43.425    -851.798      95.799
  C       45.049    -853.811      95.577
  O       44.212    -852.878      94.905
  C       45.309    -855.026      94.690
  O       44.172    -855.901      94.694
  C       45.596    -854.684      93.235
  O       46.954    -854.345      93.064
  C       45.277    -856.020      92.567
  O       46.398    -856.918      92.706
  C       44.082    -856.544      93.391
  N       40.817    -857.596      89.565
  C       42.128    -857.891      89.734
  N       42.957    -857.539      90.751
  C       42.279    -856.798      91.660
  C       40.951    -856.411      91.614
  C       40.212    -856.852      90.513
  N       38.872    -856.547      90.331
  N       40.619    -855.669      92.731
  C       41.725    -855.643      93.458
  N       42.774    -856.287      92.830
  O       44.267    -850.793      96.508
  O       42.369    -851.187      94.758
  H       47.193    -856.415      92.410
  H       41.709    -851.862      94.507
  H       42.590    -858.489      88.953
  H       41.812    -855.203      94.441
  H       44.154    -857.616      93.560
  H       45.072    -855.918      91.504
  H       44.917    -853.915      92.847
  H       46.157    -855.589      95.137
  H       44.579    -854.123      96.513
  H       38.468    -856.727      89.440
  H       38.452    -855.888      90.982
  H       45.985    -853.295      95.820
  P       47.384    -852.996      92.297
  C       49.467    -854.291      91.520
  O       48.375    -853.472      91.129
  O       47.905    -851.913      93.192
  O       46.066    -852.561      91.502
  H       46.131    -851.631      91.227
  H       50.051    -854.541      90.659
  H       49.097    -855.187      91.973
  H       50.076    -853.762      92.223

 6  7  8  9  10  11  12  13  14  15  25  28  32  33  34  35 0
 6-311+G(2d,p)
 ****
 36  39  40 0
 6-311+G(2d,p)
 ****
 1  2  3  4  5  16  17  18  19  20  21  22  23  24 0
 3-21G
 ****
 26  27  29  30  31  37  38  41  42  43  44  45  46  47 0
 3-21G
 ****
 48 0
 3-21G
 ****


