%nproc=1
%NoSave
%Mem=1900MB
#P OB98/GEN NMR

erre ene a

0 1
  C      -34.562      48.428     -21.099
  O      -33.369      48.310     -21.856
  P      -32.055      49.044     -21.296
  C      -31.689      50.744     -23.231
  O      -32.087      50.536     -21.882
  C      -30.892      52.039     -23.352
  O      -31.700      53.173     -22.977
  C      -29.667      52.104     -22.450
  O      -28.557      51.412     -22.995
  C      -29.401      53.600     -22.427
  O      -28.707      53.995     -23.626
  C      -30.821      54.180     -22.417
  N      -30.303      57.484     -18.623
  C      -29.824      57.543     -19.916
  N      -29.047      58.604     -20.221
  N      -30.083      56.644     -20.829
  C      -30.867      55.634     -20.377
  C      -31.404      55.468     -19.121
  C      -31.098      56.464     -18.118
  O      -31.449      56.441     -16.943
  N      -32.153      54.325     -19.045
  C      -32.074      53.798     -20.250
  N      -31.269      54.532     -21.082
  O      -30.868      48.353     -22.118
  O      -31.859      48.932     -19.822
  H      -28.444      54.929     -23.502
  H      -30.015      48.520     -21.675
  H      -30.070      58.200     -17.954
  H      -32.564      52.884     -20.559
  H      -30.903      55.071     -23.047
  H      -28.777      53.909     -21.583
  H      -28.759      59.297     -19.546
  H      -29.901      51.762     -21.434
  H      -28.630      58.640     -21.143
  H      -30.603      52.162     -24.404
  H      -32.578      50.799     -23.863
  H      -31.084      49.894     -23.562
  P      -27.596      50.654     -21.955
  C      -25.591      52.265     -21.589
  O      -26.854      51.816     -21.139
  O      -26.451      50.052     -22.896
  O      -28.273      49.604     -21.141
  H      -26.055      49.260     -22.486
  H      -25.361      53.214     -21.096
  H      -25.594      52.427     -22.671
  H      -24.822      51.536     -21.326
  H      -35.349      47.893     -21.588
  H      -34.831      49.460     -21.015
  H      -34.407      48.020     -20.122

 3  4  5  6  7  8  9  10  11  12  23  26  30  31 0
 6-311+G(2d,p)
 ****
 33  35  36  37  38 0
 6-311+G(2d,p)
 ****
 1  2  13  14  15  16  17  18  19  20  21  22  24  25 0
 3-21G
 ****
 27  28  29  32  34  39  40  41  42  43  44  45  46  47  48  49 0
 3-21G
 ****


