%nproc=1
%NoSave
%Mem=1900MB
#P OB98/GEN NMR

erre ene a

0 1
  C      -36.112     159.512      13.732
  O      -36.107     160.589      12.789
  P      -35.841     160.201      11.250
  C      -33.751     159.584       9.826
  O      -34.294     159.792      11.122
  C      -32.287     160.012       9.776
  O      -32.170     161.438       9.606
  C      -31.499     159.697      11.041
  O      -31.096     158.335      11.081
  C      -30.294     160.612      10.872
  O      -29.321     159.989      10.015
  C      -30.905     161.846      10.189
  N      -29.830     166.676      11.282
  C      -29.372     165.878      10.250
  N      -28.528     166.461       9.372
  N      -29.711     164.626      10.096
  C      -30.584     164.186      11.033
  C      -31.107     164.876      12.102
  C      -30.699     166.255      12.279
  O      -31.049     166.995      13.195
  N      -31.971     164.097      12.831
  C      -31.989     162.945      12.189
  N      -31.154     162.945      11.099
  O      -35.911     161.616      10.508
  O      -36.821     159.225      10.693
  H      -29.774     159.782       9.174
  H      -36.183     161.493       9.577
  H      -29.529     167.634      11.358
  H      -32.591     162.090      12.468
  H      -30.275     162.209       9.371
  H      -29.790     160.825      11.821
  H      -28.282     167.438       9.389
  H      -32.064     159.984      11.937
  H      -28.212     165.901       8.588
  H      -31.818     159.520       8.911
  H      -34.322     160.153       9.088
  H      -33.859     158.526       9.561
  P      -31.582     157.465      12.339
  C      -30.780     157.271      14.799
  O      -30.512     157.752      13.498
  O      -31.268     155.962      11.883
  O      -33.016     157.652      12.705
  H      -31.887     155.344      12.314
  H      -31.175     156.253      14.774
  H      -31.501     157.931      15.294
  H      -29.851     157.271      15.372
  H      -36.298     159.897      14.713
  H      -35.162     159.020      13.717
  H      -36.880     158.814      13.472

 3  4  5  6  7  8  9  10  11  12  23  26  30  31  33  0
 6-311+G(2d,p)
 ****
 35  36  37  38 0
 6-311+G(2d,p)
 ****
 1  2  13  14  15  16  17  18  19  20  21  22  24  25  27  28  29 0
 3-21G
 ****
 32  34  39  40  41  42  43  44  45  46  47  48  49 0
 3-21G
 ****


