%nproc=1
%NoSave
%Mem=1900MB
#P OB98/GEN NMR

erre ene a

0 1
  C       -6.383     -18.295     -14.760
  O       -7.758     -18.145     -14.452
  P       -8.528     -16.879     -15.069
  C       -8.450     -15.472     -12.848
  O       -8.056     -15.617     -14.203
  C       -8.601     -13.989     -12.498
  O       -7.302     -13.403     -12.273
  C       -9.245     -13.143     -13.589
  O      -10.652     -13.322     -13.635
  C       -8.794     -11.745     -13.183
  O       -9.627     -11.240     -12.125
  C       -7.370     -12.013     -12.657
  N       -6.326     -11.680     -13.624
  C       -5.873     -10.364     -13.610
  O       -6.306      -9.511     -12.838
  N       -4.909     -10.056     -14.534
  C       -4.415     -10.895     -15.489
  O       -3.584     -10.555     -16.320
  C       -4.956     -12.263     -15.475
  C       -5.870     -12.586     -14.559
  O      -10.021     -17.177     -14.578
  O       -8.359     -16.753     -16.544
  H      -10.035     -17.705     -13.761
  H       -9.214     -10.408     -11.822
  H       -4.548      -9.114     -14.529
  H       -4.593     -12.955     -16.224
  H       -6.287     -13.586     -14.540
  H       -7.189     -11.435     -11.742
  H       -8.844     -11.029     -14.009
  H       -8.811     -13.399     -14.563
  H       -9.175     -13.915     -11.565
  H       -7.690     -15.924     -12.205
  H       -9.397     -16.000     -12.695
  P      -11.289     -13.636     -15.079
  C      -12.497     -11.408     -15.715
  O      -11.363     -12.235     -15.849
  O      -12.808     -13.952     -14.685
  O      -10.598     -14.738     -15.812
  H      -13.160     -13.341     -14.017
  H      -12.224     -10.388     -15.999
  H      -12.866     -11.400     -14.686
  H      -13.288     -11.760     -16.383
  H       -6.005     -19.176     -14.284
  H       -5.844     -17.440     -14.409
  H       -6.262     -18.382     -15.820

 3  4  5  6  7  8  9  10  11  12  13  24  28  29  30  31  32 0
 6-311+G(2d,p)
 ****
 33  34 0
 6-311+G(2d,p)
 ****
 1  2  14  15  16  17  18  19  20  21  22  23  25  26  27 0
 3-21G
 ****
 35  36  37  38  39  40  41  42  43  44  45 0
 3-21G
 ****


