%nproc=1
%NoSave
%Mem=1900MB
#P OB98/GEN NMR

erre ene a

0 1
  C      106.190     571.538    -213.713
  O      105.879     572.526    -214.694
  P      104.794     572.144    -215.807
  C      105.680     572.213    -218.258
  O      105.624     571.502    -217.022
  C      106.937     573.080    -218.336
  O      108.094     572.270    -218.057
  C      107.179     573.703    -219.699
  O      106.346     574.824    -219.888
  C      108.672     574.046    -219.599
  O      108.858     575.333    -218.991
  C      109.228     572.917    -218.698
  N      110.036     571.967    -219.435
  C      111.371     572.344    -219.646
  O      111.780     573.441    -219.250
  N      112.191     571.495    -220.361
  C      111.713     570.370    -220.814
  N      112.575     569.572    -221.503
  C      110.314     569.948    -220.622
  C      109.528     570.790    -219.939
  O      104.340     573.571    -216.373
  O      103.637     571.328    -215.313
  H      109.823     575.387    -218.778
  H      103.437     573.533    -216.743
  H      109.971     569.003    -221.017
  H      108.490     570.554    -219.754
  H      109.845     573.345    -217.894
  H      109.145     574.095    -220.582
  H      107.028     572.969    -220.488
  H      106.879     573.856    -217.561
  H      113.535     569.876    -221.621
  H      104.799     572.868    -218.338
  H      112.310     568.664    -221.871
  H      105.655     571.494    -219.081
  P      105.689     575.033    -221.335
  C      106.937     576.522    -223.019
  O      106.927     575.279    -222.320
  O      105.055     576.497    -221.211
  O      104.679     574.016    -221.769
  H      104.535     576.696    -222.016
  H      107.902     576.629    -223.513
  H      106.808     577.355    -222.316
  H      106.145     576.520    -223.768
  H      106.924     571.925    -213.037
  H      106.575     570.664    -214.196
  H      105.304     571.284    -213.170

 3  4  5  6  7  8  9  10  11  12  13  21  23  27  28  29  30  32 0
 6-311+G(2d,p)
 ****
 34  35 0
 6-311+G(2d,p)
 ****
 1  2  14  15  16  17  18  19  20  22  24  25  26 0
 3-21G
 ****
 31  33  36  37  38  39  40  41  42  43  44  45  46 0
 3-21G
 ****


