%nproc=1
%NoSave
%Mem=1900MB
#P OB98/GEN NMR

erre ene a

0 1
  C      120.003     108.440    -411.535
  O      119.250     108.221    -410.339
  P      120.014     107.492    -409.131
  C      120.874     105.097    -408.607
  O      120.096     105.925    -409.465
  C      120.520     103.623    -408.838
  O      119.215     103.301    -408.305
  C      120.457     103.238    -410.311
  O      121.757     103.121    -410.864
  C      119.678     101.929    -410.232
  O      120.542     100.849    -409.835
  C      118.671     102.221    -409.106
  N      115.033     101.196    -412.564
  C      116.241     100.631    -412.325
  N      117.151     100.962    -411.384
  C      116.708     101.989    -410.635
  C      115.504     102.664    -410.758
  C      114.642     102.231    -411.781
  N      113.418     102.816    -412.032
  N      115.407     103.663    -409.812
  C      116.541     103.611    -409.145
  N      117.361     102.608    -409.599
  O      118.958     107.569    -407.928
  O      121.312     108.135    -408.765
  H      121.334     100.880    -410.408
  H      119.261     108.210    -407.258
  H      116.509      99.801    -412.973
  H      116.818     104.271    -408.332
  H      118.527     101.359    -408.444
  H      119.215     101.646    -411.184
  H      119.880     103.986    -410.873
  H      121.272     103.005    -408.325
  H      120.698     105.360    -407.562
  H      112.894     102.497    -412.833
  H      113.152     103.642    -411.515
  H      121.936     105.282    -408.802
  P      122.312     104.346    -411.738
  C      121.370     105.627    -413.759
  O      121.098     104.675    -412.741
  O      123.365     103.611    -412.692
  O      122.835     105.502    -410.952
  H      122.999     102.788    -413.067
  H      120.475     105.727    -414.384
  H      122.205     105.289    -414.378
  H      121.603     106.596    -413.311
  H      119.387     108.930    -412.260
  H      120.334     107.500    -411.925
  H      120.851     109.054    -411.315

 3  4  5  6  7  8  9  10  11  12  22  25  29  30  31  32 0
 6-311+G(2d,p)
 ****
 33  36  37 0
 6-311+G(2d,p)
 ****
 1  2  13  14  15  16  17  18  19  20  21  23  24  26 0
 3-21G
 ****
 27  28  34  35  38  39  40  41  42  43  44  45  46  47  48 0
 3-21G
 ****


