%nproc=1
%NoSave
%Mem=1900MB
#P OB98/GEN NMR

erre ene a

0 1
  C     -188.092      71.071     -85.272
  O     -188.015      72.379     -84.690
  P     -187.141      73.573     -85.311
  C     -184.748      73.054     -84.470
  O     -185.911      73.860     -84.319
  C     -183.498      73.814     -84.018
  O     -183.285      74.975     -84.854
  C     -183.557      74.379     -82.606
  O     -183.427      73.376     -81.616
  C     -182.406      75.383     -82.639
  O     -181.149      74.746     -82.368
  C     -182.442      75.875     -84.099
  N     -182.899      77.249     -84.223
  C     -182.065      78.238     -83.696
  O     -181.040      77.929     -83.087
  N     -182.422      79.553     -83.859
  C     -183.562      79.849     -84.402
  N     -183.854      81.170     -84.554
  C     -184.532      78.831     -84.848
  C     -184.139      77.565     -84.732
  O     -187.935      74.792     -85.651
  O     -186.447      72.955     -86.615
  H     -186.256      73.669     -87.252
  H     -181.227      74.335     -81.484
  H     -185.489      79.121     -85.257
  H     -184.785      76.753     -85.049
  H     -181.447      75.785     -84.551
  H     -182.532      76.178     -81.897
  H     -184.504      74.916     -82.471
  H     -182.635      73.143     -84.124
  H     -183.162      81.841     -84.248
  H     -184.640      72.797     -85.530
  H     -184.703      81.507     -84.985
  H     -184.873      72.129     -83.899
  P     -184.784      72.780     -81.002
  C     -184.589      73.943     -78.691
  O     -184.617      72.726     -79.410
  O     -184.754      71.240     -81.444
  O     -186.028      73.455     -81.480
  H     -185.651      70.951     -81.687
  H     -184.955      73.759     -77.677
  H     -185.215      74.707     -79.161
  H     -183.559      74.303     -78.632
  H     -188.734      70.454     -84.679
  H     -187.114      70.638     -85.308
  H     -188.486      71.145     -86.264

 3  4  5  6  7  8  9  10  11  12  13  24  27  28  29  30  32 0
 6-311+G(2d,p)
 ****
 34  35 0
 6-311+G(2d,p)
 ****
 1  2  14  15  16  17  18  19  20  21  22  23  25  26 0
 3-21G
 ****
 31  33  36  37  38  39  40  41  42  43  44  45  46 0
 3-21G
 ****


