%nproc=1
%NoSave
%Mem=1900MB
#P OB98/GEN NMR

erre ene a

0 1
  C      289.890    -123.809    -393.820
  O      289.888    -122.604    -393.076
  P      288.493    -122.140    -392.423
  C      288.944    -119.786    -393.437
  O      288.024    -120.861    -393.264
  C      288.820    -119.200    -394.844
  O      288.948    -120.243    -395.825
  C      287.482    -118.540    -395.121
  O      287.425    -117.257    -394.520
  C      287.473    -118.509    -396.642
  O      288.140    -117.339    -397.142
  C      288.253    -119.790    -397.010
  N      287.399    -120.833    -397.558
  C      287.183    -120.777    -398.941
  O      287.687    -119.876    -399.610
  N      286.367    -121.720    -399.518
  C      285.822    -122.633    -398.777
  N      285.025    -123.547    -399.401
  C      286.003    -122.711    -397.317
  C      286.796    -121.785    -396.774
  O      288.936    -121.524    -391.020
  O      287.484    -123.229    -392.277
  H      288.082    -117.396    -398.118
  H      288.213    -121.585    -390.369
  H      285.526    -123.497    -396.742
  H      286.987    -121.769    -395.709
  H      289.033    -119.565    -397.753
  H      286.452    -118.491    -397.042
  H      286.657    -119.165    -394.758
  H      289.641    -118.490    -394.991
  H      284.913    -123.460    -400.404
  H      289.963    -120.160    -393.299
  H      284.571    -124.310    -398.918
  H      288.745    -119.023    -392.677
  P      286.396    -117.045    -393.316
  C      284.836    -115.827    -394.947
  O      284.967    -116.887    -394.021
  O      286.717    -115.539    -392.859
  O      286.472    -118.005    -392.174
  H      286.208    -115.323    -392.053
  H      283.882    -115.921    -395.462
  H      285.643    -115.862    -395.684
  H      284.854    -114.864    -394.419
  H      290.875    -123.996    -394.194
  H      289.208    -123.723    -394.640
  H      289.589    -124.619    -393.188

 3  4  5  6  7  8  9  10  11  12  13  21  23  27  28  29  30  32 0
 6-311+G(2d,p)
 ****
 34  35 0
 6-311+G(2d,p)
 ****
 1  2  14  15  16  17  18  19  20  22  24  25  26 0
 3-21G
 ****
 31  33  36  37  38  39  40  41  42  43  44  45  46 0
 3-21G
 ****


