%nproc=1
%NoSave
%Mem=1900MB
#P OB98/GEN NMR

erre ene a

0 1
  C      -55.947     165.467      64.966
  O      -56.638     166.346      64.096
  P      -56.822     167.868      64.564
  C      -58.106     169.054      66.498
  O      -57.934     167.882      65.717
  C      -59.366     168.924      67.356
  O      -60.529     168.759      66.519
  C      -59.350     167.714      68.283
  O      -58.561     167.951      69.433
  C      -60.834     167.541      68.586
  O      -61.246     168.419      69.647
  C      -61.485     167.960      67.250
  N      -61.946     166.817      66.470
  C      -63.137     166.231      66.897
  O      -63.761     166.626      67.882
  N      -63.565     165.149      66.174
  C      -62.904     164.573      65.125
  O      -63.311     163.568      64.552
  C      -61.639     165.218      64.740
  C      -61.221     166.286      65.419
  O      -57.552     168.563      63.321
  O      -55.553     168.563      64.924
  H      -61.225     169.326      69.281
  H      -57.236     169.483      63.225
  H      -64.435     164.726      66.451
  H      -61.091     164.789      63.911
  H      -60.286     166.767      65.160
  H      -62.343     168.616      67.441
  H      -61.075     166.522      68.900
  H      -58.993     166.829      67.736
  H      -59.492     169.848      67.935
  H      -58.194     169.919      65.837
  H      -57.224     169.192      67.132
  P      -57.447     166.847      69.789
  C      -57.510     164.666      71.227
  O      -58.166     165.848      70.812
  O      -56.446     167.717      70.688
  O      -56.826     166.233      68.582
  H      -56.910     168.403      71.200
  H      -56.430     164.822      71.330
  H      -57.696     163.873      70.501
  H      -57.912     164.363      72.198
  H      -55.901     164.493      64.526
  H      -56.464     165.412      65.901
  H      -54.954     165.832      65.128

 3  4  5  6  7  8  9  10  11  12  13  23  28  29  30  31  32 0
 6-311+G(2d,p)
 ****
 33  34 0
 6-311+G(2d,p)
 ****
 1  2  14  15  16  17  18  19  20  21  22  24  25  26 0
 3-21G
 ****
 27  35  36  37  38  39  40  41  42  43  44  45 0
 3-21G
 ****


