%nproc=1
%NoSave
%Mem=1900MB
#P OB98/GEN NMR

erre ene a

0 1
  C      109.882     188.440      25.822
  O      110.407     187.765      24.678
  P      110.491     186.164      24.699
  C      108.443     185.954      23.150
  O      109.028     185.581      24.394
  C      107.763     184.753      22.491
  O      108.687     183.668      22.275
  C      106.639     184.165      23.328
  O      105.490     184.992      23.288
  C      106.476     182.795      22.689
  O      105.662     182.870      21.507
  C      107.930     182.439      22.306
  N      108.536     181.462      23.199
  C      108.062     180.150      23.084
  O      107.157     179.883      22.295
  N      108.618     179.179      23.880
  C      109.556     179.493      24.720
  N      110.071     178.490      25.481
  C      110.074     180.866      24.880
  C      109.519     181.792      24.100
  O      111.181     185.568      25.881
  O      111.283     185.834      23.341
  H      104.745     183.004      21.821
  H      111.792     185.009      23.467
  H      110.861     181.075      25.589
  H      109.838     182.827      24.154
  H      107.966     182.030      21.289
  H      105.994     182.083      23.367
  H      106.975     184.049      24.367
  H      107.371     185.075      21.516
  H      109.691     177.560      25.361
  H      109.216     186.352      22.489
  H      110.836     178.624      26.126
  H      107.728     186.765      23.325
  P      105.230     185.966      24.534
  C      105.874     187.892      22.922
  O      105.964     187.355      24.227
  O      106.134     185.319      25.690
  O      103.802     186.072      24.961
  H      105.700     185.446      26.553
  H      106.138     188.952      22.960
  H      104.861     187.797      22.520
  H      106.579     187.376      22.264
  H      109.894     189.496      25.650
  H      110.482     188.211      26.678
  H      108.876     188.118      25.996

 3  4  5  6  7  8  9  10  11  12  13  23  27  28  29  30  32 0
 6-311+G(2d,p)
 ****
 34  35 0
 6-311+G(2d,p)
 ****
 1  2  14  15  16  17  18  19  20  21  22  24  25  26 0
 3-21G
 ****
 31  33  36  37  38  39  40  41  42  43  44  45  46 0
 3-21G
 ****


