%nproc=1
%NoSave
%Mem=1900MB
#P OB98/GEN NMR

erre ene a

0 1
  C      178.751     207.591    -171.963
  O      177.698     206.649    -171.959
  H      178.449     208.498    -171.433
  H      179.614     207.157    -171.451
  H      179.035     207.836    -172.989
  P      176.329     207.087    -172.674
  C      174.824     205.404    -171.387
  O      175.164     206.764    -171.618
  C      173.766     205.319    -170.291
  O      174.355     205.614    -169.006
  C      172.615     206.304    -170.454
  O      171.643     205.847    -171.377
  C      172.065     206.325    -169.039
  O      171.285     205.138    -168.804
  C      173.351     206.292    -168.202
  N      173.347     209.915    -164.590
  C      172.737     208.714    -164.661
  N      172.787     207.808    -165.661
  C      173.559     208.249    -166.664
  C      174.237     209.456    -166.737
  C      174.115     210.313    -165.630
  N      174.723     211.547    -165.560
  N      174.900     209.571    -167.943
  C      174.654     208.438    -168.571
  N      173.840     207.611    -167.843
  O      176.119     205.968    -173.799
  O      176.303     208.470    -173.230
  H      170.587     205.122    -169.487
  H      175.516     206.299    -174.492
  H      172.130     208.443    -163.802
  H      175.040     208.172    -169.546
  H      173.233     205.722    -167.273
  H      171.414     207.179    -168.845
  H      172.976     207.308    -170.714
  H      173.393     204.287    -170.259
  H      175.718     204.859    -171.069
  H      174.424     212.155    -164.813
  H      175.169     211.910    -166.389
  H      174.448     204.963    -172.315
  P      170.926     206.948    -172.300
  C      169.315     205.189    -173.338
  O      169.451     206.388    -172.582
  O      171.667     206.780    -173.708
  O      171.005     208.345    -171.779
  H      171.638     207.613    -174.215
  H      168.278     204.947    -173.440
  H      169.820     204.391    -172.835
  H      169.745     205.328    -174.308

 6  7  8  9  10  11  12  13  14  15  25  28  32  33  34  35 0
 6-311+G(2d,p)
 ****
 36  39  40 0
 6-311+G(2d,p)
 ****
 1  2  3  4  5  16  17  18  19  20  21  22  23  24 0
 3-21G
 ****
 26  27  29  30  31  37  38  41  42  43  44  45  46  47 0
 3-21G
 ****
 48 0
 3-21G
 ****


