%nproc=1
%NoSave
%Mem=1900MB
#P OB98/GEN NMR

erre ene a

0 1
  C     -841.675    1266.151     -66.035
  O     -840.625    1267.017     -65.638
  H     -841.257    1265.352     -66.637
  H     -842.407    1266.698     -66.634
  H     -842.151    1265.725     -65.155
  P     -841.042    1268.302     -64.761
  C     -840.960    1269.743     -66.920
  O     -841.742    1269.290     -65.824
  C     -841.631    1270.935     -67.604
  O     -842.836    1270.509     -68.266
  C     -842.040    1272.047     -66.667
  O     -840.930    1272.903     -66.393
  C     -843.100    1272.761     -67.491
  O     -842.467    1273.636     -68.444
  C     -843.788    1271.597     -68.218
  N     -848.904    1272.091     -68.034
  C     -847.942    1272.847     -68.634
  N     -846.622    1272.683     -68.589
  C     -846.266    1271.599     -67.862
  C     -847.138    1270.743     -67.193
  C     -848.507    1271.011     -67.295
  N     -849.476    1270.246     -66.699
  N     -846.428    1269.757     -66.532
  C     -845.175    1269.981     -66.848
  N     -845.018    1271.106     -67.609
  O     -839.960    1268.885     -63.924
  O     -842.296    1267.723     -63.954
  H     -841.907    1273.077     -69.011
  H     -842.846    1267.160     -64.527
  H     -848.305    1273.686     -69.210
  H     -844.343    1269.349     -66.557
  H     -844.038    1271.856     -69.258
  H     -843.762    1273.384     -66.883
  H     -842.491    1271.676     -65.741
  H     -840.950    1271.305     -68.369
  H     -840.811    1268.926     -67.642
  H     -850.415    1270.616     -66.682
  H     -849.178    1269.531     -66.055
  H     -839.985    1270.037     -66.526
  P     -840.732    1273.575     -64.949
  C     -842.644    1275.275     -64.799
  O     -842.206    1273.966     -64.462
  O     -839.719    1274.680     -64.920
  O     -840.354    1272.350     -64.001
  H     -839.929    1272.685     -63.161
  H     -843.636    1275.426     -64.426
  H     -842.642    1275.389     -65.863
  H     -841.985    1275.995     -64.362

 6  7  8  9  10  11  12  13  14  15  25  28  32  33  34  35 0
 6-311+G(2d,p)
 ****
 36  39  40 0
 6-311+G(2d,p)
 ****
 1  2  3  4  5  16  17  18  19  20  21  22  23  24 0
 3-21G
 ****
 26  27  29  30  31  37  38  41  42  43  44  45  46  47 0
 3-21G
 ****
 48 0
 3-21G
 ****


