%nproc=1
%NoSave
%Mem=1900MB
#P OB98/GEN NMR

erre ene a

0 1
  C     -151.630     -10.138     693.511
  O     -150.656      -9.722     694.468
  P     -149.979     -10.890     695.365
  C     -147.471     -10.476     694.749
  O     -148.485     -10.394     695.749
  C     -146.395      -9.404     695.001
  O     -146.822      -8.114     694.508
  C     -146.065      -9.189     696.475
  O     -145.195     -10.192     696.981
  C     -145.365      -7.837     696.418
  O     -143.980      -8.011     696.060
  C     -146.135      -7.122     695.291
  N     -148.671      -2.813     694.328
  C     -147.713      -3.479     693.572
  N     -147.393      -2.914     692.373
  N     -147.110      -4.570     693.950
  C     -147.543      -5.036     695.156
  C     -148.471      -4.482     695.993
  C     -149.112      -3.233     695.570
  O     -149.939      -2.589     696.212
  N     -148.652      -5.226     697.120
  C     -147.847      -6.248     696.966
  N     -147.131      -6.184     695.787
  O     -149.710     -12.056     694.294
  O     -150.833     -11.359     696.495
  H     -143.584      -8.576     696.763
  H     -149.714     -12.922     694.734
  H     -149.084      -1.968     693.981
  H     -147.761      -7.095     697.656
  H     -145.458      -6.579     694.619
  H     -145.375      -7.312     697.375
  H     -147.858      -2.106     691.985
  H     -146.983      -9.109     697.091
  H     -146.731      -3.394     691.791
  H     -145.480      -9.721     694.451
  H     -147.903     -10.326     693.760
  H     -147.041     -11.486     694.767
  P     -145.113     -10.347     698.597
  C     -146.089     -12.765     698.659
  O     -144.977     -11.920     698.852
  O     -146.611     -10.035     699.063
  O     -144.102      -9.486     699.242
  H     -146.614      -9.650     699.973
  H     -146.642     -12.492     697.746
  H     -146.758     -12.692     699.519
  H     -145.765     -13.806     698.570
  H     -152.001      -9.283     692.985
  H     -152.439     -10.626     694.014
  H     -151.180     -10.817     692.816

 3  4  5  6  7  8  9  10  11  12  23  26  30  31  33  0
 6-311+G(2d,p)
 ****
 35  36  37  38 0
 6-311+G(2d,p)
 ****
 1  2  13  14  15  16  17  18  19  20  21  22  24  25  27  28  29 0
 3-21G
 ****
 32  34  39  40  41  42  43  44  45  46  47  48  49 0
 3-21G
 ****


