%nproc=1
%NoSave
%Mem=1900MB
#P OB98/GEN NMR

erre ene a

0 1
  C      463.762    -441.261    -359.981
  O      462.653    -442.138    -359.995
  H      463.417    -440.260    -360.241
  H      464.494    -441.586    -360.723
  H      464.221    -441.231    -358.988
  P      462.865    -443.584    -359.325
  C      462.800    -444.747    -361.646
  O      462.239    -444.654    -360.343
  C      461.770    -445.275    -362.636
  O      461.488    -446.669    -362.377
  C      460.424    -444.553    -362.585
  O      460.447    -443.356    -363.357
  C      459.518    -445.597    -363.223
  O      459.705    -445.588    -364.653
  C      460.075    -446.902    -362.629
  N      456.445    -449.796    -360.580
  C      456.757    -449.572    -361.912
  N      455.987    -450.204    -362.825
  N      457.726    -448.794    -362.308
  C      458.401    -448.212    -361.285
  C      458.180    -448.348    -359.932
  C      457.114    -449.221    -359.511
  O      456.802    -449.462    -358.342
  N      459.063    -447.598    -359.203
  C      459.799    -446.987    -360.111
  N      459.438    -447.324    -361.391
  O      461.823    -443.565    -358.106
  O      464.248    -443.865    -358.851
  H      460.643    -445.793    -364.817
  H      462.311    -443.400    -357.276
  H      455.678    -450.396    -360.329
  H      460.608    -446.305    -359.894
  H      459.999    -447.739    -363.326
  H      458.460    -445.405    -363.039
  H      455.208    -450.794    -362.586
  H      460.103    -444.363    -361.553
  H      456.202    -450.057    -363.803
  H      462.204    -445.211    -363.641
  H      463.658    -445.432    -361.611
  H      463.145    -443.755    -361.958
  P      459.397    -442.201    -362.992
  C      457.839    -442.655    -365.013
  O      458.712    -441.739    -364.370
  O      460.346    -440.971    -362.613
  O      458.451    -442.522    -361.884
  H      460.276    -440.774    -361.655
  H      457.460    -442.215    -365.912
  H      457.025    -442.890    -364.360
  H      458.374    -443.550    -365.252

 6  7  8  9  10  11  12  13  14  15  26  29  33  34 0
 6-311+G(2d,p)
 ****
 36  38  39  40  41 0
 6-311+G(2d,p)
 ****
 1  2  3  4  5  16  17  18  19  20  21  22  23  24  25 0
 3-21G
 ****
 27  28  30  31  32  35  37  42  43  44  45  46  47 0
 3-21G
 ****
 48  49 0
 3-21G
 ****


