%nproc=1
%NoSave
%Mem=1900MB
#P OB98/GEN NMR

erre ene a

0 1
  C     -893.760    -160.072     -33.188
  O     -894.980    -159.402     -32.877
  H     -892.970    -159.642     -32.574
  H     -893.530    -159.917     -34.243
  H     -893.830    -161.139     -32.968
  P     -896.360    -160.014     -33.419
  C     -896.740    -158.339     -35.349
  O     -896.410    -159.678     -34.989
  C     -895.820    -157.844     -36.476
  O     -896.190    -158.544     -37.715
  C     -895.950    -156.328     -36.767
  O     -894.650    -155.871     -37.208
  C     -896.940    -156.333     -37.905
  O     -896.990    -155.081     -38.562
  C     -896.430    -157.531     -38.717
  N     -897.370    -158.005     -39.720
  C     -897.390    -157.342     -40.934
  O     -896.650    -156.390     -41.208
  N     -898.320    -157.783     -41.848
  C     -899.200    -158.794     -41.647
  O     -900.000    -159.174     -42.516
  C     -899.160    -159.448     -40.332
  C     -898.270    -159.035     -39.441
  O     -897.580    -159.643     -32.643
  O     -896.110    -161.599     -33.391
  H     -896.490    -161.981     -32.583
  H     -896.170    -154.939     -39.082
  H     -898.330    -157.311     -42.736
  H     -899.870    -160.250     -40.127
  H     -898.190    -159.486     -38.454
  H     -895.480    -157.311     -39.190
  H     -897.950    -156.511     -37.530
  H     -896.250    -155.747     -35.889
  H     -894.790    -158.125     -36.251
  H     -896.610    -157.704     -34.465
  H     -897.790    -158.301     -35.680
  P     -893.670    -155.018     -36.288
  C     -895.050    -152.843     -36.103
  O     -894.490    -153.963     -35.417
  O     -892.540    -154.389     -37.039
  O     -893.100    -156.057     -35.187
  H     -892.170    -155.833     -35.002
  H     -895.569    -152.220     -35.405
  H     -895.733    -153.188     -36.851
  H     -894.267    -152.281     -36.568

 6  7  8  9  10  11  12  13  14  15  16  27  31  32  33  34  35 0
 6-311+G(2d,p)
 ****
 36  37 0
 6-311+G(2d,p)
 ****
 1  2  3  4  5  17  18  19  20  21  22  23  24  25 0
 3-21G
 ****
 26  28  29  30  38  39  40  41  42  43  44  45 0
 3-21G
 ****


