%nproc=1
%NoSave
%Mem=1900MB
#P OB98/GEN NMR

erre ene a

0 1
  C      686.263     -96.443      21.055
  O      686.995     -95.503      20.291
  H      685.898     -95.980      21.976
  H      685.398     -96.778      20.468
  H      686.884     -97.312      21.291
  P      688.314     -94.893      20.968
  C      687.089     -92.688      21.591
  O      687.791     -93.831      22.052
  C      687.213     -91.563      22.616
  O      686.387     -91.842      23.769
  C      688.624     -91.357      23.157
  O      689.430     -90.594      22.280
  C      688.322     -90.590      24.435
  O      688.023     -89.215      24.117
  C      687.064     -91.307      24.945
  N      688.013     -92.494      29.827
  C      687.796     -91.311      29.211
  N      687.556     -91.075      27.904
  C      687.551     -92.232      27.214
  C      687.766     -93.501      27.698
  C      687.999     -93.624      29.085
  N      688.237     -94.831      29.711
  N      687.717     -94.438      26.672
  C      687.449     -93.732      25.594
  N      687.345     -92.388      25.867
  O      688.930     -93.963      19.815
  O      689.301     -95.889      21.485
  H      687.615     -88.828      24.912
  H      689.879     -93.800      19.994
  H      687.823     -90.434      29.858
  H      687.316     -94.138      24.606
  H      686.367     -90.626      25.438
  H      689.164     -90.584      25.136
  H      689.101     -92.312      23.420
  H      686.832     -90.636      22.152
  H      686.034     -92.945      21.462
  H      688.580     -94.785      30.658
  H      688.375     -95.651      29.135
  H      687.507     -92.370      20.625
  P      691.017     -90.591      22.539
  C      691.299     -88.035      22.940
  O      691.298     -89.341      23.509
  O      691.618     -90.123      21.140
  O      691.574     -91.908      22.994
  H      692.523     -90.461      21.015
  H      691.499     -87.313      23.704
  H      690.343     -87.836      22.503
  H      692.056     -87.975      22.186

 6  7  8  9  10  11  12  13  14  15  25  28  32  33  34  35 0
 6-311+G(2d,p)
 ****
 36  39  40 0
 6-311+G(2d,p)
 ****
 1  2  3  4  5  16  17  18  19  20  21  22  23  24 0
 3-21G
 ****
 26  27  29  30  31  37  38  41  42  43  44  45  46  47 0
 3-21G
 ****
 48 0
 3-21G
 ****


