%nproc=1
%NoSave
%Mem=1900MB
#P OB98/GEN NMR

erre ene a

0 1
  C      -65.566     634.859     320.252
  O      -65.630     633.758     321.161
  P      -64.541     632.583     321.030
  C      -66.003     630.933     319.690
  O      -64.840     631.755     319.690
  C      -66.062     630.072     318.411
  O      -64.942     629.129     318.372
  C      -67.346     629.245     318.326
  O      -67.751     629.084     316.949
  C      -66.910     627.884     318.832
  O      -67.799     626.845     318.402
  C      -65.494     627.808     318.252
  N      -63.687     623.014     318.211
  C      -64.451     623.693     317.330
  N      -64.864     624.976     317.392
  C      -64.414     625.562     318.515
  C      -63.625     624.992     319.510
  C      -63.266     623.651     319.324
  N      -62.519     622.949     320.249
  N      -63.366     625.915     320.503
  C      -64.024     626.987     320.156
  N      -64.655     626.847     318.945
  O      -64.339     631.748     322.249
  O      -63.202     633.378     320.651
  H      -67.483     626.011     318.814
  H      -62.449     632.992     321.153
  H      -64.755     623.132     316.450
  H      -64.098     627.904     320.743
  H      -65.502     627.544     317.193
  H      -66.900     627.892     319.938
  H      -68.197     629.650     318.897
  H      -65.956     630.725     317.539
  H      -66.895     631.557     319.758
  H      -62.401     621.956     320.095
  H      -62.311     623.373     321.144
  H      -65.996     630.312     320.584
  P      -69.253     629.559     316.611
  C      -70.610     627.405     317.228
  O      -70.217     628.723     317.573
  O      -69.578     629.507     315.153
  O      -69.277     631.048     317.208
  H      -68.957     631.109     318.131
  H      -71.145     626.969     318.076
  H      -69.737     626.788     317.011
  H      -71.264     627.434     316.359
  H      -66.354     635.549     320.471
  H      -65.674     634.501     319.250
  H      -64.622     635.352     320.355

 3  4  5  6  7  8  9  10  11  12  22  25  29  30  31  32 0
 6-311+G(2d,p)
 ****
 33  36  37 0
 6-311+G(2d,p)
 ****
 1  2  13  14  15  16  17  18  19  20  21  23  24  26 0
 3-21G
 ****
 27  28  34  35  38  39  40  41  42  43  44  45  46  47  48 0
 3-21G
 ****


