%nproc=1
%NoSave
%Mem=1900MB
#P OB98/GEN NMR

erre ene a

0 1
  C      -20.786       8.970       4.686
  O      -19.385       8.882       4.867
  H      -21.279       8.731       5.632
  H      -21.108       8.250       3.929
  H      -21.071       9.982       4.384
  P      -18.478       9.422       3.663
  C      -18.636       7.149       2.364
  O      -18.848       8.554       2.360
  C      -19.271       6.520       1.128
  O      -20.676       6.830       1.060
  C      -18.723       7.042      -0.190
  O      -17.424       6.568      -0.465
  C      -19.776       6.522      -1.159
  O      -19.517       5.168      -1.546
  C      -21.072       6.614      -0.316
  N      -21.961       7.649      -0.806
  C      -22.469       7.442      -2.096
  O      -22.168       6.426      -2.722
  N      -23.268       8.407      -2.649
  C      -23.517       9.495      -1.989
  N      -24.290      10.427      -2.609
  C      -23.001       9.753      -0.630
  C      -22.236       8.798      -0.103
  O      -17.025       8.884       4.059
  O      -18.544      10.894       3.441
  H      -20.120       4.976      -2.293
  H      -17.007       7.943       4.297
  H      -23.248      10.671      -0.116
  H      -21.815       8.904       0.890
  H      -21.613       5.659      -0.338
  H      -19.807       7.115      -2.076
  H      -18.758       8.139      -0.205
  H      -19.157       5.430       1.203
  H      -24.576      10.233      -3.562
  H      -19.048       6.701       3.273
  H      -24.483      11.340      -2.227
  H      -17.555       6.976       2.369
  P      -16.255       7.562      -0.922
  C      -17.086       7.041      -3.304
  O      -16.616       8.046      -2.413
  O      -14.869       7.032      -0.768
  O      -16.547       8.883      -0.065
  H      -17.418       9.286      -0.218
  H      -17.292       7.479      -4.258
  H      -17.981       6.606      -2.911
  H      -16.339       6.283      -3.413

 6  7  8  9  10  11  12  13  14  15  16  26  30  31  32  33  35 0
 6-311+G(2d,p)
 ****
 37  38 0
 6-311+G(2d,p)
 ****
 1  2  3  4  5  17  18  19  20  21  22  23  24  25 0
 3-21G
 ****
 27  28  29  34  36  39  40  41  42  43  44  45  46 0
 3-21G
 ****


