%nproc=1
%NoSave
%Mem=1900MB
#P OB98/GEN NMR

erre ene a

0 1
  C     1246.289    -894.430    -447.767
  O     1246.109    -893.500    -448.818
  H     1245.408    -894.380    -447.107
  H     1247.168    -894.170    -447.173
  H     1246.377    -895.430    -448.163
  P     1247.329    -893.250    -449.839
  C     1245.938    -894.130    -451.822
  O     1247.134    -894.300    -451.031
  C     1245.599    -895.430    -452.570
  O     1246.637    -895.610    -453.610
  C     1245.566    -896.710    -451.709
  O     1244.532    -897.530    -452.177
  C     1246.936    -897.300    -451.975
  O     1246.952    -898.690    -451.706
  C     1247.199    -896.910    -453.434
  N     1248.639    -896.960    -453.753
  C     1249.275    -898.140    -453.577
  O     1248.670    -899.160    -453.201
  N     1250.652    -898.210    -453.803
  C     1251.310    -897.130    -454.112
  N     1252.621    -897.230    -454.248
  C     1250.630    -895.800    -454.246
  C     1249.333    -895.790    -454.086
  O     1248.690    -893.240    -449.235
  O     1246.966    -891.830    -450.512
  H     1247.870    -899.020    -451.747
  H     1247.380    -891.110    -449.990
  H     1251.202    -894.920    -454.508
  H     1248.713    -894.850    -454.149
  H     1246.693    -897.610    -454.108
  H     1247.686    -896.810    -451.316
  H     1245.443    -896.450    -450.628
  H     1244.653    -895.260    -453.092
  H     1253.054    -898.160    -454.122
  H     1246.100    -893.310    -452.480
  H     1253.247    -896.450    -454.467
  H     1245.098    -893.890    -451.155
  P     1243.502    -898.200    -451.164
  C     1241.286    -896.980    -451.685
  O     1242.368    -897.120    -450.767
  O     1244.121    -898.910    -450.003
  O     1242.678    -899.240    -452.083
  H     1242.406    -900.000    -451.517
  H     1240.602    -896.242    -451.320
  H     1240.780    -897.917    -451.785
  H     1241.664    -896.675    -452.638

 6  7  8  9  10  11  12  13  14  15  16  26  30  31  32  33  35 0
 6-311+G(2d,p)
 ****
 37  38 0
 6-311+G(2d,p)
 ****
 1  2  3  4  5  17  18  19  20  21  22  23  24  25 0
 3-21G
 ****
 27  28  29  34  36  39  40  41  42  43  44  45  46 0
 3-21G
 ****


