%nproc=1
%NoSave
%Mem=1900MB
#P OB98/GEN NMR

erre ene a

0 1
  C       69.393    -760.008    -236.902
  O       70.646    -760.190    -236.268
  H       69.548    -759.450    -237.829
  H       68.723    -759.430    -236.256
  H       68.941    -760.975    -237.145
  P       70.690    -760.977    -234.874
  C       70.325    -759.067    -233.160
  O       69.734    -760.122    -233.903
  C       69.662    -758.957    -231.783
  O       68.435    -758.195    -231.851
  C       69.258    -760.283    -231.153
  O       70.353    -761.036    -230.666
  C       68.353    -759.778    -230.040
  O       69.158    -759.248    -228.973
  C       67.579    -758.668    -230.777
  N       66.292    -759.127    -231.310
  C       65.471    -759.840    -230.432
  O       65.828    -760.069    -229.273
  N       64.258    -760.315    -230.896
  C       63.926    -760.114    -232.130
  N       62.718    -760.615    -232.537
  C       64.771    -759.388    -233.098
  C       65.931    -758.918    -232.632
  O       72.054    -761.275    -234.329
  O       69.806    -762.292    -235.121
  H       68.549    -758.976    -228.269
  H       69.812    -762.824    -234.291
  H       64.457    -759.279    -234.127
  H       66.602    -758.382    -233.277
  H       67.399    -757.809    -230.111
  H       67.725    -760.563    -229.610
  H       68.651    -760.875    -231.851
  H       70.354    -758.392    -231.130
  H       62.164    -761.111    -231.858
  H       70.211    -758.139    -233.733
  H       62.410    -760.574    -233.506
  H       71.392    -759.266    -233.012
  P       70.208    -762.646    -230.731
  C       70.300    -762.707    -228.117
  O       69.627    -763.108    -229.307
  O       71.736    -763.143    -230.717
  O       69.440    -763.174    -231.910
  H       72.034    -763.349    -231.623
  H       69.783    -763.098    -227.266
  H       70.321    -761.639    -228.062
  H       71.302    -763.083    -228.130

 6  7  8  9  10  11  12  13  14  15  16  26  30  31  32  33  35 0
 6-311+G(2d,p)
 ****
 37  38 0
 6-311+G(2d,p)
 ****
 1  2  3  4  5  17  18  19  20  21  22  23  24  25 0
 3-21G
 ****
 27  28  29  34  36  39  40  41  42  43  44  45  46 0
 3-21G
 ****


