%nproc=1
%NoSave
%Mem=1900MB
#P OB98/GEN NMR

erre ene a

0 1
  C      -48.673    -765.087      68.811
  O      -48.730    -766.295      68.080
  H      -49.392    -765.139      69.625
  H      -48.938    -764.247      68.167
  H      -47.678    -764.937      69.233
  P      -47.756    -766.470      66.814
  C      -46.461    -768.524      67.721
  O      -46.430    -767.135      67.426
  C      -45.140    -768.968      68.333
  O      -44.946    -768.396      69.644
  C      -44.998    -770.471      68.560
  O      -44.797    -771.213      67.359
  C      -43.794    -770.502      69.466
  O      -42.605    -770.262      68.697
  C      -44.105    -769.299      70.404
  N      -44.775    -769.720      71.638
  C      -43.945    -770.248      72.649
  O      -42.741    -770.363      72.464
  N      -44.529    -770.666      73.822
  C      -45.835    -770.606      73.967
  N      -46.353    -771.028      75.146
  C      -46.729    -770.064      72.919
  C      -46.139    -769.652      71.800
  O      -47.536    -765.247      65.980
  O      -48.383    -767.698      65.995
  H      -42.508    -771.003      68.075
  H      -47.824    -767.842      65.188
  H      -47.797    -770.051      73.079
  H      -46.740    -769.245      70.993
  H      -43.186    -768.756      70.661
  H      -43.665    -771.448      69.987
  H      -45.873    -770.859      69.107
  H      -44.344    -768.584      67.690
  H      -45.699    -771.405      75.838
  H      -46.659    -769.068      66.784
  H      -47.348    -771.090      75.317
  H      -47.272    -768.743      68.425
  P      -45.925    -772.295      66.962
  C      -45.688    -771.970      64.382
  O      -46.504    -771.837      65.534
  O      -47.116    -771.968      67.969
  O      -45.488    -773.718      67.021
  H      -47.090    -772.591      68.742
  H      -46.223    -771.621      63.524
  H      -45.428    -772.999      64.246
  H      -44.797    -771.390      64.507

 6  7  8  9  10  11  12  13  14  15  16  26  30  31  32  33  35 0
 6-311+G(2d,p)
 ****
 37  38 0
 6-311+G(2d,p)
 ****
 1  2  3  4  5  17  18  19  20  21  22  23  24  25 0
 3-21G
 ****
 27  28  29  34  36  39  40  41  42  43  44  45  46 0
 3-21G
 ****


