%nproc=1
%NoSave
%Mem=1900MB
#P OB98/GEN NMR

erre ene a

0 1
  C     -212.243    -428.916     197.879
  O     -213.550    -429.375     197.597
  P     -214.763    -428.840     198.495
  C     -216.736    -428.522     196.832
  O     -216.130    -429.340     197.823
  C     -218.118    -429.069     196.461
  O     -217.961    -430.330     195.742
  C     -219.026    -429.344     197.667
  O     -220.376    -429.074     197.261
  C     -218.850    -430.836     197.879
  O     -219.896    -431.421     198.637
  C     -218.769    -431.311     196.423
  N     -218.217    -432.657     196.293
  C     -219.117    -433.695     196.080
  O     -220.334    -433.549     195.995
  N     -218.570    -434.951     196.022
  C     -217.263    -435.270     196.242
  O     -216.859    -436.428     196.297
  C     -216.360    -434.130     196.468
  C     -216.868    -432.897     196.481
  O     -214.760    -427.261     198.217
  O     -214.644    -429.149     199.950
  H     -220.742    -431.096     198.275
  H     -214.322    -426.788     198.947
  H     -219.208    -435.719     195.855
  H     -215.312    -434.346     196.625
  H     -216.228    -432.039     196.663
  H     -219.766    -431.276     195.966
  H     -217.908    -431.015     198.412
  H     -218.769    -428.753     198.554
  H     -218.598    -428.363     195.771
  H     -216.105    -428.509     195.942
  H     -216.815    -427.493     197.202
  P     -221.328    -428.284     198.292
  C     -222.338    -427.116     196.180
  O     -222.558    -427.719     197.438
  O     -220.435    -426.986     198.584
  O     -221.670    -429.069     199.516
  H     -220.028    -426.619     197.782
  H     -221.503    -427.584     195.651
  H     -222.121    -426.053     196.324
  H     -223.242    -427.214     195.576
  H     -211.552    -429.364     197.195
  H     -211.979    -429.185     198.880
  H     -212.209    -427.852     197.775

 3  4  5  6  7  8  9  10  11  12  13  23  28  29  30  31  32 0
 6-311+G(2d,p)
 ****
 33  34 0
 6-311+G(2d,p)
 ****
 1  2  14  15  16  17  18  19  20  21  22  24  25  26 0
 3-21G
 ****
 27  35  36  37  38  39  40  41  42  43  44  45 0
 3-21G
 ****


