%nproc=1
%NoSave
%Mem=1900MB
#P OB98/GEN NMR

erre ene a

0 1
  C       61.436     -22.001      44.695
  O       62.367     -21.857      43.647
  P       63.596     -22.844      43.412
  C       65.405     -21.161      44.264
  O       64.781     -22.431      44.409
  C       66.933     -21.303      44.207
  O       67.398     -21.804      45.486
  C       67.366     -22.325      43.143
  O       68.500     -21.928      42.384
  C       67.477     -23.618      43.939
  O       68.278     -24.606      43.310
  C       67.978     -23.110      45.287
  N       69.738     -25.654      49.316
  C       70.376     -24.706      48.541
  N       71.700     -24.555      48.757
  N       69.772     -24.004      47.618
  C       68.475     -24.346      47.439
  C       67.737     -25.266      48.146
  C       68.407     -26.010      49.185
  O       67.911     -26.940      49.821
  N       66.469     -25.397      47.643
  C       66.449     -24.582      46.609
  N       67.655     -23.947      46.424
  O       63.946     -23.151      41.993
  O       63.052     -24.208      44.086
  H       69.189     -24.262      43.266
  H       63.417     -24.951      43.566
  H       70.278     -26.221      49.960
  H       65.605     -24.436      45.944
  H       69.063     -22.998      45.294
  H       66.468     -24.037      44.029
  H       72.218     -25.183      49.355
  H       66.584     -22.442      42.384
  H       72.230     -24.060      48.045
  H       67.382     -20.317      44.050
  H       65.115     -20.573      45.142
  H       65.031     -20.647      43.376
  P       68.883     -22.308      40.882
  C       70.825     -23.871      41.483
  O       69.551     -23.763      40.877
  O       70.111     -21.353      40.513
  O       67.778     -22.132      39.893
  H       70.021     -21.047      39.590
  H       71.280     -24.817      41.176
  H       70.715     -23.868      42.570
  H       71.475     -23.047      41.174
  H       60.710     -21.217      44.638
  H       61.945     -21.947      45.634
  H       60.946     -22.948      44.609

 3  4  5  6  7  8  9  10  11  12  23  26  30  31 0
 6-311+G(2d,p)
 ****
 33  35  36  37  38 0
 6-311+G(2d,p)
 ****
 1  2  13  14  15  16  17  18  19  20  21  22  24  25 0
 3-21G
 ****
 27  28  29  32  34  39  40  41  42  43  44  45  46  47  48  49 0
 3-21G
 ****


