%nproc=1
%NoSave
%Mem=1900MB
#P OB98/GEN NMR

erre ene a

0 1
  C      533.311    -486.610       8.199
  O      533.855    -487.904       7.964
  P      533.180    -489.206       8.628
  C      532.274    -490.058       6.360
  O      531.956    -489.569       7.665
  C      531.889    -491.532       6.256
  O      530.498    -491.696       6.598
  C      532.048    -492.121       4.862
  O      533.411    -492.385       4.573
  C      531.153    -493.351       4.962
  O      531.841    -494.418       5.652
  C      530.000    -492.826       5.838
  N      528.818    -492.459       5.062
  C      528.213    -493.471       4.318
  O      528.653    -494.624       4.333
  N      527.081    -493.171       3.587
  C      526.613    -491.963       3.589
  N      525.461    -491.735       2.902
  C      527.254    -490.850       4.317
  C      528.338    -491.163       5.031
  O      532.814    -489.054      10.071
  O      534.217    -490.386       8.337
  H      531.249    -495.196       5.624
  H      534.909    -490.483       9.037
  H      526.825    -489.850       4.272
  H      528.851    -490.409       5.611
  H      529.704    -493.585       6.571
  H      530.833    -493.740       3.995
  H      531.648    -491.436       4.106
  H      532.493    -492.100       6.986
  H      524.964    -492.559       2.572
  H      533.354    -489.954       6.208
  H      524.890    -490.918       3.086
  H      531.744    -489.457       5.618
  P      533.920    -492.118       3.078
  C      535.823    -490.501       3.742
  O      534.590    -490.655       3.088
  O      532.561    -491.924       2.254
  O      534.779    -493.208       2.503
  H      532.333    -492.743       1.765
  H      536.255    -489.528       3.458
  H      536.528    -491.286       3.442
  H      535.688    -490.521       4.827
  H      533.892    -485.879       7.677
  H      533.331    -486.400       9.248
  H      532.301    -486.579       7.849

 3  4  5  6  7  8  9  10  11  12  13  23  27  28  29  30  32 0
 6-311+G(2d,p)
 ****
 34  35 0
 6-311+G(2d,p)
 ****
 1  2  14  15  16  17  18  19  20  21  22  24  25  26 0
 3-21G
 ****
 31  33  36  37  38  39  40  41  42  43  44  45  46 0
 3-21G
 ****


