%nproc=1
%NoSave
%Mem=1900MB
#P OB98/GEN NMR

erre ene a

0 1
  C     -967.330    1003.008     382.109
  O     -967.610    1002.761     380.745
  H     -968.268    1003.293     382.614
  H     -966.614    1003.838     382.211
  H     -966.936    1002.108     382.592
  P     -966.351    1002.385     379.833
  C     -964.921    1003.939     378.310
  O     -965.543    1003.758     379.562
  C     -963.940    1005.096     378.349
  O     -964.639    1006.359     378.496
  C     -962.928    1005.021     379.490
  O     -961.818    1004.210     379.148
  C     -962.544    1006.499     379.648
  O     -961.580    1006.884     378.645
  C     -963.884    1007.197     379.420
  N     -964.207    1010.015     383.611
  C     -963.233    1009.970     382.647
  N     -962.150    1010.771     382.809
  N     -963.282    1009.202     381.578
  C     -964.378    1008.416     381.553
  C     -965.430    1008.347     382.446
  C     -965.372    1009.236     383.582
  O     -966.249    1009.383     384.440
  N     -966.360    1007.423     382.088
  C     -965.871    1006.901     380.970
  N     -964.670    1007.464     380.615
  O     -966.998    1002.074     378.403
  O     -965.523    1001.233     380.306
  H     -961.333    1007.817     378.777
  H     -966.512    1001.325     377.982
  H     -964.131    1010.647     384.384
  H     -966.354    1006.123     380.375
  H     -963.761    1008.170     378.929
  H     -962.072    1006.683     380.605
  H     -961.935    1011.165     383.719
  H     -963.404    1004.684     380.417
  H     -961.409    1010.681     382.150
  H     -963.420    1005.130     377.382
  H     -965.690    1004.135     377.563
  H     -964.413    1003.012     378.029
  P     -960.875    1003.683     380.333
  C     -958.993    1004.728     381.769
  O     -960.151    1004.961     381.000
  O     -959.689    1002.955     379.522
  O     -961.533    1002.744     381.284
  H     -959.767    1001.974     379.613
  H     -958.622    1005.658     382.146
  H     -958.245    1004.268     381.157
  H     -959.232    1004.081     382.587

 6  7  8  9  10  11  12  13  14  15  26  29  33  34 0
 6-311+G(2d,p)
 ****
 36  38  39  40  41 0
 6-311+G(2d,p)
 ****
 1  2  3  4  5  16  17  18  19  20  21  22  23  24  25 0
 3-21G
 ****
 27  28  30  31  32  35  37  42  43  44  45  46  47 0
 3-21G
 ****
 48  49 0
 3-21G
 ****


