%nproc=1
%NoSave
%Mem=1900MB
#P OB98/GEN NMR

erre ene a

0 1
  C      301.015     180.853     354.622
  O      301.585     181.553     355.712
  H      300.646     181.580     353.896
  H      300.174     180.244     354.963
  H      301.761     180.219     354.134
  P      302.295     180.716     356.880
  C      300.129     179.537     357.606
  O      301.167     180.425     357.989
  C      299.647     178.724     358.808
  O      300.699     177.803     359.204
  C      299.292     179.583     360.027
  O      298.155     179.006     360.671
  C      300.508     179.444     360.922
  O      300.194     179.640     362.302
  C      300.979     178.029     360.598
  N      304.338     176.800     364.166
  C      302.959     176.789     364.202
  N      302.382     176.425     365.364
  N      302.207     177.116     363.182
  C      302.916     177.449     362.075
  C      304.280     177.496     361.916
  C      305.101     177.148     363.057
  O      306.327     177.149     363.086
  N      304.618     177.907     360.648
  C      303.458     178.109     360.049
  N      302.397     177.853     360.875
  O      303.554     181.313     357.424
  O      302.550     179.278     356.230
  H      301.000     179.410     362.814
  H      303.478     179.190     355.940
  H      304.869     176.548     364.983
  H      303.336     178.443     359.026
  H      300.445     177.267     361.188
  H      301.269     180.184     360.635
  H      302.897     176.146     366.188
  H      299.086     180.626     359.770
  H      301.369     176.389     365.408
  H      298.792     178.113     358.497
  H      300.520     178.856     356.838
  H      299.295     180.107     357.181
  P      296.691     179.394     360.144
  C      296.674     181.468     361.673
  O      295.977     180.297     361.265
  O      295.870     178.258     359.620
  O      297.005     180.462     358.985
  H      296.300     180.407     358.311
  H      296.103     181.982     362.417
  H      296.819     182.109     360.829
  H      297.625     181.194     362.080

 6  7  8  9  10  11  12  13  14  15  26  29  33  34 0
 6-311+G(2d,p)
 ****
 36  38  39  40  41 0
 6-311+G(2d,p)
 ****
 1  2  3  4  5  16  17  18  19  20  21  22  23  24  25 0
 3-21G
 ****
 27  28  30  31  32  35  37  42  43  44  45  46  47 0
 3-21G
 ****
 48  49 0
 3-21G
 ****


