%nproc=1
%NoSave
%Mem=1900MB
#P OB98/GEN NMR

erre ene a

0 1
  C      195.154     251.310      45.759
  O      194.045     252.051      46.241
  P      194.002     252.440      47.793
  C      192.742     250.212      48.242
  O      193.789     251.087      48.627
  C      192.186     249.475      49.463
  O      193.208     248.569      49.983
  C      191.765     250.398      50.615
  O      190.640     249.790      51.264
  C      192.974     250.348      51.532
  O      192.681     250.752      52.863
  C      193.363     248.874      51.384
  N      194.720     248.593      51.848
  C      194.858     248.027      53.110
  O      193.914     247.749      53.850
  N      196.145     247.834      53.542
  C      197.279     248.228      52.890
  O      198.397     248.134      53.380
  C      197.070     248.825      51.563
  C      195.824     248.978      51.107
  O      192.602     253.203      47.942
  O      195.146     253.279      48.256
  H      193.517     250.745      53.361
  H      192.741     254.170      47.948
  H      196.266     247.413      54.448
  H      197.949     249.129      51.006
  H      195.639     249.431      50.142
  H      192.654     248.237      51.929
  H      193.755     251.009      51.143
  H      191.519     251.413      50.293
  H      191.341     248.855      49.141
  H      193.127     249.483      47.526
  H      191.949     250.782      47.745
  P      189.381     250.728      51.618
  C      190.072     251.187      54.098
  O      189.850     251.700      52.800
  O      188.419     249.672      52.342
  O      188.765     251.379      50.423
  H      188.896     249.092      52.961
  H      190.472     250.173      54.066
  H      189.129     251.184      54.652
  H      190.783     251.832      54.616
  H      195.035     251.131      44.711
  H      195.210     250.375      46.276
  H      196.054     251.865      45.926

 3  4  5  6  7  8  9  10  11  12  13  23  28  29  30  31  32 0
 6-311+G(2d,p)
 ****
 33  34 0
 6-311+G(2d,p)
 ****
 1  2  14  15  16  17  18  19  20  21  22  24  25  26 0
 3-21G
 ****
 27  35  36  37  38  39  40  41  42  43  44  45 0
 3-21G
 ****


