%nproc=1
%NoSave
%Mem=1900MB
#P OB98/GEN NMR

erre ene a

0 1
  C      225.486     -73.332    -312.117
  O      226.707     -74.033    -311.990
  H      224.893     -73.491    -311.212
  H      224.920     -73.707    -312.977
  H      225.678     -72.263    -312.234
  P      227.706     -73.976    -313.245
  C      229.649     -74.149    -311.559
  O      229.045     -74.696    -312.726
  C      230.156     -75.265    -310.647
  O      229.008     -75.978    -310.109
  C      231.043     -76.291    -311.363
  O      232.065     -76.737    -310.468
  C      230.090     -77.442    -311.640
  O      230.770     -78.680    -311.821
  C      229.184     -77.376    -310.414
  N      226.983     -81.746    -311.820
  C      228.256     -81.441    -311.488
  N      228.756     -80.248    -311.103
  C      227.773     -79.330    -311.015
  C      226.432     -79.491    -311.321
  C      226.043     -80.772    -311.753
  N      224.756     -81.088    -312.125
  N      225.749     -78.303    -311.149
  C      226.662     -77.437    -310.744
  N      227.903     -78.010    -310.665
  O      227.902     -72.627    -313.851
  O      227.077     -75.080    -314.219
  H      230.101     -79.396    -311.856
  H      226.862     -75.904    -313.734
  H      228.974     -82.258    -311.556
  H      226.476     -76.392    -310.509
  H      229.628     -77.871    -309.534
  H      229.517     -77.236    -312.555
  H      231.494     -75.903    -312.278
  H      230.679     -74.818    -309.794
  H      228.922     -73.528    -311.015
  H      224.565     -82.033    -312.421
  H      224.035     -80.378    -312.077
  H      230.481     -73.508    -311.878
  P      233.587     -76.772    -310.975
  C      234.632     -76.038    -308.738
  O      234.544     -77.064    -309.720
  O      234.005     -75.631    -311.842
  O      233.650     -78.158    -311.785
  H      234.167     -78.026    -312.608
  H      235.295     -76.348    -307.957
  H      233.661     -75.852    -308.329
  H      235.006     -75.143    -309.190

 6  7  8  9  10  11  12  13  14  15  25  28  32  33  34  35 0
 6-311+G(2d,p)
 ****
 36  39  40 0
 6-311+G(2d,p)
 ****
 1  2  3  4  5  16  17  18  19  20  21  22  23  24 0
 3-21G
 ****
 26  27  29  30  31  37  38  41  42  43  44  45  46  47 0
 3-21G
 ****
 48 0
 3-21G
 ****


