%nproc=1
%NoSave
%Mem=1900MB
#P OB98/GEN NMR

erre ene a

0 1
  C     -394.052     127.582    -267.290
  O     -394.357     126.536    -268.213
  P     -393.848     125.061    -267.822
  C     -393.080     123.930    -270.035
  O     -394.120     124.099    -269.081
  C     -393.644     123.296    -271.312
  O     -394.248     122.010    -271.052
  C     -394.738     124.130    -271.972
  O     -394.187     125.246    -272.647
  C     -395.372     123.090    -272.886
  O     -394.581     122.911    -274.079
  C     -395.297     121.815    -272.029
  N     -399.108     118.427    -271.583
  C     -398.006     118.446    -272.355
  N     -397.036     119.390    -272.423
  C     -397.287     120.383    -271.553
  C     -398.371     120.505    -270.695
  C     -399.313     119.458    -270.732
  N     -400.446     119.448    -269.949
  N     -398.286     121.666    -269.960
  C     -397.184     122.256    -270.386
  N     -396.544     121.512    -271.339
  O     -394.912     124.582    -266.731
  O     -392.452     125.033    -267.291
  H     -394.724     123.702    -274.639
  H     -394.500     124.563    -265.850
  H     -397.877     117.596    -273.023
  H     -396.815     123.212    -270.032
  H     -395.035     120.932    -272.621
  H     -396.384     123.358    -273.205
  H     -395.462     124.467    -271.224
  H     -392.808     123.151    -272.014
  H     -392.288     123.296    -269.633
  H     -401.116     118.704    -270.086
  H     -400.660     120.257    -269.377
  H     -392.635     124.909    -270.246
  P     -393.804     126.534    -271.762
  C     -394.329     128.273    -273.589
  O     -393.316     127.610    -272.858
  O     -392.442     126.074    -271.084
  O     -394.881     127.006    -270.838
  H     -391.839     125.650    -271.729
  H     -393.859     128.990    -274.268
  H     -395.002     128.807    -272.910
  H     -394.895     127.549    -274.179
  H     -394.440     128.508    -267.659
  H     -392.991     127.660    -267.177
  H     -394.496     127.362    -266.342

 3  4  5  6  7  8  9  10  11  12  22  25  29  30  31  32 0
 6-311+G(2d,p)
 ****
 33  36  37 0
 6-311+G(2d,p)
 ****
 1  2  13  14  15  16  17  18  19  20  21  23  24  26 0
 3-21G
 ****
 27  28  34  35  38  39  40  41  42  43  44  45  46  47  48 0
 3-21G
 ****


