%nproc=1
%NoSave
%Mem=1900MB
#P OB98/GEN NMR

erre ene a

0 1
  C       -8.974     244.500    -734.883
  O       -8.599     245.677    -735.602
  P       -7.694     245.507    -736.913
  C       -9.526     246.213    -738.691
  O       -8.265     246.422    -738.093
  C      -10.117     247.580    -739.109
  O      -10.690     248.247    -737.961
  C       -9.077     248.527    -739.725
  O       -8.913     248.307    -741.106
  C       -9.657     249.883    -739.370
  O      -10.737     250.208    -740.269
  C      -10.213     249.623    -737.947
  N       -9.272     249.788    -736.807
  C       -8.671     251.027    -736.569
  O       -8.857     252.017    -737.261
  N       -7.844     251.080    -735.473
  C       -7.679     250.131    -734.524
  O       -6.970     250.256    -733.538
  C       -8.461     248.902    -734.737
  C       -9.193     248.773    -735.846
  O       -8.013     244.015    -737.406
  O       -6.222     245.724    -736.687
  H      -11.265     250.907    -739.848
  H       -7.208     243.453    -737.343
  H       -7.347     251.950    -735.342
  H       -8.406     248.123    -733.974
  H       -9.774     247.866    -736.015
  H      -11.071     250.272    -737.735
  H       -8.918     250.665    -739.485
  H       -8.122     248.421    -739.196
  H      -10.925     247.398    -739.831
  H      -10.211     245.702    -737.993
  H       -9.419     245.566    -739.559
  P       -7.700     248.989    -741.891
  C       -6.858     246.775    -742.888
  O       -7.413     248.052    -743.165
  O       -6.495     249.339    -741.060
  O       -8.359     250.295    -742.556
  H       -8.202     251.094    -741.989
  H       -6.869     246.183    -743.810
  H       -7.454     246.251    -742.127
  H       -5.830     246.875    -742.540
  H       -9.572     244.773    -734.039
  H       -8.094     243.992    -734.547
  H       -9.536     243.854    -735.525

 3  4  5  6  7  8  9  10  11  12  13  23  28  29  30  31  32 0
 6-311+G(2d,p)
 ****
 33  34 0
 6-311+G(2d,p)
 ****
 1  2  14  15  16  17  18  19  20  21  22  24  25  26  27 0
 3-21G
 ****
 35  36  37  38  39  40  41  42  43  44  45 0
 3-21G
 ****


