%nproc=1
%NoSave
%Mem=1900MB
#P OB98/GEN NMR

erre ene a

0 1
  C       14.423      -6.411      32.119
  O       15.363      -5.463      31.645
  P       15.566      -4.125      32.511
  C       13.783      -2.785      31.180
  O       15.149      -2.902      31.559
  C       13.571      -1.613      30.219
  O       12.188      -1.605      29.788
  C       13.888      -0.245      30.824
  O       14.478       0.558      29.801
  C       12.520       0.317      31.162
  O       12.533       1.742      31.212
  C       11.662      -0.285      30.039
  N       10.247      -0.333      30.391
  C        9.335       0.010      29.389
  O        9.741       0.408      28.297
  N        7.992      -0.055      29.664
  C        7.597      -0.333      30.868
  N        6.257      -0.388      31.090
  C        8.530      -0.580      31.985
  C        9.824      -0.585      31.674
  O       17.157      -3.996      32.602
  O       14.921      -4.151      33.858
  H       12.537       2.079      30.288
  H       17.425      -3.583      33.445
  H        8.149      -0.770      32.978
  H       10.579      -0.780      32.424
  H       11.772       0.297      29.115
  H       12.194      -0.060      32.139
  H       14.562      -0.306      31.682
  H       14.187      -1.787      29.328
  H        5.639      -0.201      30.312
  H       13.179      -2.606      32.074
  H        5.858      -0.596      31.996
  H       13.451      -3.723      30.726
  P       15.873       1.277      30.133
  C       15.244       2.507      32.295
  O       15.473       2.623      30.905
  O       16.288       1.847      28.691
  O       16.970       0.456      30.724
  H       17.168       2.261      28.743
  H       15.117       3.509      32.714
  H       16.094       2.025      32.785
  H       14.330       1.934      32.476
  H       14.390      -7.246      31.450
  H       13.455      -5.958      32.172
  H       14.714      -6.745      33.093

 3  4  5  6  7  8  9  10  11  12  13  21  23  27  28  29  30  32 0
 6-311+G(2d,p)
 ****
 34  35 0
 6-311+G(2d,p)
 ****
 1  2  14  15  16  17  18  19  20  22  24  25  26 0
 3-21G
 ****
 31  33  36  37  38  39  40  41  42  43  44  45  46 0
 3-21G
 ****


