%nproc=1
%NoSave
%Mem=1900MB
#P OB98/GEN NMR

erre ene a

0 1
  C       30.737       1.066      67.303
  O       30.149       2.164      67.968
  H       30.592       0.171      67.914
  H       31.809       1.230      67.175
  H       30.267       0.904      66.330
  P       30.102       3.584      67.225
  C       32.073       4.302      68.722
  O       30.792       4.645      68.210
  C       32.910       5.564      68.914
  O       34.139       5.249      69.606
  C       33.328       6.232      67.608
  O       32.243       6.931      67.031
  C       34.475       7.102      68.097
  O       33.985       8.297      68.727
  C       35.146       6.176      69.139
  N       36.308       5.466      68.603
  C       37.319       6.259      68.071
  O       37.266       7.486      68.035
  N       38.385       5.585      67.533
  C       38.486       4.231      67.400
  O       39.348       3.682      66.720
  C       37.425       3.444      68.046
  C       36.393       4.087      68.596
  O       28.771       3.991      66.689
  O       31.184       3.430      66.053
  H       30.723       3.254      65.211
  H       34.710       8.628      69.293
  H       39.102       6.150      67.102
  H       37.502       2.364      68.019
  H       35.584       3.527      69.052
  H       35.473       6.754      70.012
  H       35.134       7.416      67.285
  H       33.724       5.483      66.913
  H       32.339       6.260      69.541
  H       32.570       3.642      68.003
  H       31.950       3.769      69.669
  P       32.100       7.070      65.444
  C       33.048       9.450      65.493
  O       31.961       8.628      65.092
  O       31.056       6.201      64.825
  O       33.555       6.702      64.883
  H       33.469       6.001      64.208
  H       32.852      10.463      65.211
  H       33.945       9.114      65.015
  H       33.166       9.392      66.555

 6  7  8  9  10  11  12  13  14  15  16  27  31  32  33  34  35 0
 6-311+G(2d,p)
 ****
 36  37 0
 6-311+G(2d,p)
 ****
 1  2  3  4  5  17  18  19  20  21  22  23  24  25 0
 3-21G
 ****
 26  28  29  30  38  39  40  41  42  43  44  45 0
 3-21G
 ****


