%nproc=1
%NoSave
%Mem=1900MB
#P OB98/GEN NMR

erre ene a

0 1
  C      123.926    -102.878    -448.542
  O      123.000    -103.928    -448.319
  P      121.724    -104.015    -449.283
  C      122.690    -105.937    -450.761
  O      122.228    -104.595    -450.691
  C      121.690    -106.789    -451.542
  O      120.487    -106.991    -450.760
  C      121.229    -106.144    -452.845
  O      122.195    -106.301    -453.871
  C      119.930    -106.895    -453.118
  O      120.189    -108.151    -453.762
  C      119.387    -107.118    -451.688
  N      118.297    -106.208    -451.356
  C      117.009    -106.720    -451.504
  O      116.787    -107.861    -451.910
  N      115.986    -105.865    -451.206
  C      116.114    -104.554    -450.840
  O      115.159    -103.817    -450.644
  C      117.497    -104.058    -450.728
  C      118.504    -104.890    -450.992
  O      121.380    -102.485    -449.602
  O      120.552    -104.739    -448.704
  H      119.343    -108.642    -453.769
  H      120.411    -102.371    -449.678
  H      115.046    -106.219    -451.283
  H      117.637    -103.022    -450.440
  H      119.531    -104.540    -450.929
  H      119.022    -108.145    -451.580
  H      119.257    -106.334    -453.767
  H      121.001    -105.083    -452.677
  H      122.142    -107.770    -451.735
  H      122.804    -106.335    -449.746
  H      123.673    -105.955    -451.245
  P      122.280    -105.131    -454.969
  C      124.698    -104.503    -454.197
  O      123.362    -104.098    -454.392
  O      120.864    -104.422    -454.755
  O      122.522    -105.645    -456.352
  H      120.570    -104.459    -453.837
  H      125.016    -105.213    -454.966
  H      124.795    -104.969    -453.213
  H      125.346    -103.619    -454.237
  H      124.720    -102.945    -447.828
  H      123.430    -101.936    -448.435
  H      124.327    -102.960    -449.531

 3  4  5  6  7  8  9  10  11  12  13  23  28  29  30  31  32 0
 6-311+G(2d,p)
 ****
 33  34 0
 6-311+G(2d,p)
 ****
 1  2  14  15  16  17  18  19  20  21  22  24  25  26 0
 3-21G
 ****
 27  35  36  37  38  39  40  41  42  43  44  45 0
 3-21G
 ****


