%nproc=1
%NoSave
%Mem=1900MB
#P OB98/GEN NMR

erre ene a

0 1
  C      407.395      62.667    -123.891
  O      406.448      63.694    -123.693
  H      407.789      62.746    -124.904
  H      406.921      61.690    -123.773
  H      408.222      62.771    -123.181
  P      405.752      63.784    -122.243
  C      405.644      66.368    -122.540
  O      404.930      65.168    -122.258
  C      404.684      67.563    -122.562
  O      403.867      67.492    -123.755
  C      403.746      67.617    -121.350
  O      403.653      68.969    -120.887
  C      402.407      67.145    -121.894
  O      401.314      67.659    -121.148
  C      402.487      67.605    -123.357
  N      401.616      66.798    -124.230
  C      400.351      67.323    -124.499
  O      399.997      68.400    -124.013
  N      399.490      66.587    -125.276
  C      399.834      65.406    -125.692
  N      398.923      64.714    -126.435
  C      401.144      64.794    -125.383
  C      401.978      65.540    -124.656
  O      406.988      64.085    -121.273
  O      404.949      62.588    -121.848
  H      401.163      68.587    -121.422
  H      406.742      63.959    -120.324
  H      401.384      63.801    -125.739
  H      402.965      65.174    -124.382
  H      402.188      68.654    -123.449
  H      402.366      66.050    -121.847
  H      404.074      66.981    -120.535
  H      405.276      68.481    -122.644
  H      398.039      65.161    -126.612
  H      406.136      66.270    -123.514
  H      399.082      63.782    -126.785
  H      406.398      66.530    -121.767
  P      404.720      69.392    -119.757
  C      405.246      71.739    -120.719
  O      404.700      70.995    -119.641
  O      406.137      69.071    -120.432
  O      404.533      68.666    -118.454
  H      406.479      68.213    -120.118
  H      405.166      72.785    -120.507
  H      404.708      71.515    -121.616
  H      406.276      71.479    -120.847

 6  7  8  9  10  11  12  13  14  15  16  26  30  31  32  33  35 0
 6-311+G(2d,p)
 ****
 37  38 0
 6-311+G(2d,p)
 ****
 1  2  3  4  5  17  18  19  20  21  22  23  24  25 0
 3-21G
 ****
 27  28  29  34  36  39  40  41  42  43  44  45  46 0
 3-21G
 ****


