%nproc=1
%NoSave
%Mem=1900MB
#P OB98/GEN NMR

erre ene a

0 1
  C      -74.143      56.286     134.489
  O      -73.139      57.091     135.080
  H      -74.167      56.488     133.414
  H      -75.123      56.525     134.916
  H      -73.914      55.227     134.646
  P      -72.964      56.971     136.674
  C      -74.472      57.600     138.684
  O      -74.353      57.511     137.270
  C      -75.679      58.452     139.070
  O      -75.467      59.821     138.677
  C      -76.989      58.019     138.420
  O      -77.580      56.958     139.154
  C      -77.806      59.299     138.534
  O      -78.359      59.400     139.861
  C      -76.751      60.397     138.321
  N      -78.601      63.859     135.006
  C      -79.027      63.471     136.232
  N      -78.521      62.507     137.031
  C      -77.454      61.923     136.457
  C      -76.909      62.210     135.213
  C      -77.524      63.235     134.472
  N      -77.090      63.626     133.223
  N      -75.821      61.402     134.952
  C      -75.675      60.682     136.048
  N      -76.661      60.931     136.973
  O      -71.723      57.578     137.236
  O      -73.096      55.386     136.876
  H      -78.862      60.236     139.895
  H      -73.799      55.026     136.303
  H      -79.891      64.007     136.619
  H      -74.869      59.980     136.228
  H      -76.917      61.256     138.986
  H      -78.645      59.325     137.837
  H      -76.855      57.771     137.358
  H      -75.764      58.438     140.165
  H      -73.559      58.033     139.115
  H      -77.702      64.227     132.687
  H      -76.371      63.071     132.779
  H      -74.586      56.580     139.072
  P      -78.152      55.653     138.410
  C      -79.611      55.306     136.320
  O      -79.204      56.216     137.335
  O      -78.658      54.593     139.323
  O      -76.938      55.157     137.495
  H      -77.087      54.233     137.207
  H      -80.307      55.789     135.667
  H      -80.076      54.454     136.770
  H      -78.756      54.991     135.760

 6  7  8  9  10  11  12  13  14  15  25  28  32  33  34  35 0
 6-311+G(2d,p)
 ****
 36  39  40 0
 6-311+G(2d,p)
 ****
 1  2  3  4  5  16  17  18  19  20  21  22  23  24 0
 3-21G
 ****
 26  27  29  30  31  37  38  41  42  43  44  45  46  47 0
 3-21G
 ****
 48 0
 3-21G
 ****


