%nproc=1
%NoSave
%Mem=1900MB
#P OB98/GEN NMR

erre ene a

0 1
  C     -173.802    -190.564    -165.568
  O     -174.847    -190.026    -164.755
  P     -176.011    -189.200    -165.497
  C     -174.712    -186.933    -165.354
  O     -175.286    -187.938    -166.174
  C     -174.814    -185.556    -166.023
  O     -173.916    -185.505    -167.173
  C     -176.216    -185.190    -166.512
  O     -176.381    -183.780    -166.284
  C     -176.151    -185.482    -167.999
  O     -177.144    -184.764    -168.727
  C     -174.706    -185.073    -168.303
  N     -174.209    -185.636    -169.552
  C     -173.948    -184.746    -170.588
  O     -174.193    -183.542    -170.510
  N     -173.443    -185.288    -171.739
  C     -173.253    -186.623    -171.976
  O     -172.791    -187.060    -173.023
  C     -173.655    -187.530    -170.884
  C     -174.106    -187.002    -169.749
  O     -176.801    -188.584    -164.253
  O     -176.828    -190.046    -166.417
  H     -176.227    -188.325    -163.515
  H     -177.029    -184.943    -169.679
  H     -173.217    -184.656    -172.490
  H     -173.571    -188.591    -171.059
  H     -174.433    -187.638    -168.934
  H     -174.623    -183.979    -168.357
  H     -176.298    -186.551    -168.177
  H     -177.008    -185.740    -165.991
  H     -174.456    -184.807    -165.306
  H     -173.659    -187.162    -165.177
  H     -175.210    -186.937    -164.381
  P     -177.392    -183.311    -165.119
  C     -179.658    -182.958    -166.385
  O     -178.861    -183.773    -165.558
  O     -177.418    -181.726    -165.399
  O     -176.959    -183.645    -163.732
  H     -177.547    -181.508    -166.339
  H     -180.503    -183.546    -166.753
  H     -179.089    -182.588    -167.248
  H     -180.044    -182.110    -165.813
  H     -173.101    -191.085    -164.950
  H     -173.303    -189.768    -166.080
  H     -174.219    -191.242    -166.283

 3  4  5  6  7  8  9  10  11  12  13  24  28  29  30  31  32 0
 6-311+G(2d,p)
 ****
 33  34 0
 6-311+G(2d,p)
 ****
 1  2  14  15  16  17  18  19  20  21  22  23  25  26  27 0
 3-21G
 ****
 35  36  37  38  39  40  41  42  43  44  45 0
 3-21G
 ****


