%nproc=1
%NoSave
%Mem=1900MB
#P OB98/GEN NMR

erre ene a

0 1
  C      -88.682     127.279     -24.086
  O      -88.808     125.937     -24.525
  P      -89.660     124.943     -23.591
  C      -89.533     124.340     -21.053
  O      -88.871     124.844     -22.201
  C      -88.521     123.650     -20.135
  O      -88.023     122.446     -20.754
  C      -87.298     124.495     -19.806
  O      -87.590     125.403     -18.758
  C      -86.281     123.425     -19.427
  O      -86.478     122.987     -18.068
  C      -86.614     122.302     -20.421
  N      -82.461     120.478     -22.653
  C      -82.885     120.371     -21.341
  N      -82.108     119.633     -20.517
  N      -83.972     120.934     -20.880
  C      -84.640     121.651     -21.813
  C      -84.314     121.844     -23.136
  C      -83.140     121.173     -23.645
  O      -82.775     121.156     -24.817
  N      -85.223     122.654     -23.765
  C      -86.112     122.924     -22.831
  N      -85.817     122.323     -21.634
  O      -89.428     123.518     -24.276
  O      -91.110     125.287     -23.453
  H      -86.421     123.755     -17.473
  H      -90.184     123.282     -24.847
  H      -81.626     120.007     -22.954
  H      -86.996     123.527     -22.975
  H      -86.490     121.308     -19.976
  H      -85.252     123.791     -19.492
  H      -81.247     119.191     -20.796
  H      -86.953     125.033     -20.697
  H      -82.403     119.548     -19.552
  H      -89.046     123.359     -19.217
  H      -90.290     123.616     -21.363
  H      -90.027     125.167     -20.531
  P      -87.194     126.941     -18.977
  C      -84.949     128.227     -19.221
  O      -85.609     127.054     -18.780
  O      -87.795     127.665     -17.683
  O      -87.726     127.545     -20.235
  H      -88.122     128.553     -17.926
  H      -84.074     128.393     -18.591
  H      -85.600     129.103     -19.165
  H      -84.624     128.088     -20.255
  H      -88.097     127.831     -24.791
  H      -88.201     127.298     -23.130
  H      -89.653     127.721     -24.005

 3  4  5  6  7  8  9  10  11  12  23  26  30  31 0
 6-311+G(2d,p)
 ****
 33  35  36  37  38 0
 6-311+G(2d,p)
 ****
 1  2  13  14  15  16  17  18  19  20  21  22  24  25 0
 3-21G
 ****
 27  28  29  32  34  39  40  41  42  43  44  45  46  47  48  49 0
 3-21G
 ****


