%nproc=1
%NoSave
%Mem=1900MB
#P OB98/GEN NMR

erre ene a

0 1
  C       -5.931      25.714     114.952
  O       -5.951      27.146     114.885
  P       -6.690      27.966     113.719
  C       -5.279      30.136     113.764
  O       -6.538      29.533     114.038
  C       -4.952      31.208     114.808
  O       -4.541      30.590     116.051
  C       -3.796      32.131     114.453
  O       -4.143      33.071     113.452
  C       -3.478      32.749     115.813
  O       -4.331      33.869     116.091
  C       -3.797      31.593     116.781
  N       -2.609      31.021     117.393
  C       -2.288      31.468     118.678
  O       -2.947      32.362     119.208
  N       -1.217      30.899     119.322
  C       -0.471      30.041     118.699
  N        0.565      29.497     119.394
  C       -0.695      29.646     117.295
  C       -1.772      30.166     116.710
  O       -8.100      27.537     113.477
  O       -5.789      27.751     112.414
  H       -6.343      27.844     111.617
  H       -3.964      34.315     116.880
  H       -0.025      28.959     116.800
  H       -2.020      29.918     115.683
  H       -4.476      31.938     117.569
  H       -2.445      33.108     115.871
  H       -2.942      31.529     114.119
  H       -5.864      31.792     114.995
  H        0.684      29.783     120.357
  H       -5.329      30.610     112.777
  H        1.191      28.804     119.009
  H       -4.506      29.363     113.740
  P       -3.322      33.004     112.076
  C       -2.360      35.334     111.453
  O       -3.448      34.433     111.363
  O       -4.207      32.037     111.154
  O       -1.925      32.491     112.213
  H       -3.623      31.460     110.629
  H       -2.375      35.988     110.578
  H       -1.402      34.808     111.486
  H       -2.472      35.944     112.353
  H       -5.379      25.405     115.815
  H       -5.465      25.322     114.072
  H       -6.934      25.346     115.019

 3  4  5  6  7  8  9  10  11  12  13  24  27  28  29  30  32 0
 6-311+G(2d,p)
 ****
 34  35 0
 6-311+G(2d,p)
 ****
 1  2  14  15  16  17  18  19  20  21  22  23  25  26 0
 3-21G
 ****
 31  33  36  37  38  39  40  41  42  43  44  45  46 0
 3-21G
 ****


