%nproc=1
%NoSave
%Mem=1900MB
#P OB98/GEN NMR

erre ene a

0 1
  C      -43.681    -197.980     -75.711
  O      -42.404    -197.710     -75.172
  H      -44.195    -198.688     -75.055
  H      -43.583    -198.431     -76.701
  H      -44.279    -197.067     -75.777
  P      -41.518    -196.547     -75.829
  C      -42.112    -197.637     -78.090
  O      -41.090    -197.058     -77.288
  C      -41.497    -198.272     -79.334
  O      -42.533    -198.837     -80.167
  C      -40.741    -197.290     -80.223
  O      -39.481    -196.970     -79.664
  C      -40.685    -198.074     -81.526
  O      -39.637    -199.053     -81.489
  C      -42.076    -198.753     -81.536
  N      -43.052    -198.054     -82.371
  C      -43.002    -198.320     -83.737
  O      -42.167    -199.066     -84.244
  N      -43.938    -197.679     -84.504
  C      -44.842    -196.757     -84.061
  O      -45.626    -196.170     -84.800
  C      -44.826    -196.490     -82.615
  C      -43.948    -197.141     -81.851
  O      -40.395    -196.032     -74.991
  O      -42.586    -195.398     -76.152
  H      -38.843    -198.601     -81.142
  H      -42.546    -194.708     -75.464
  H      -43.909    -197.849     -85.497
  H      -45.525    -195.761     -82.229
  H      -43.917    -196.953     -80.782
  H      -41.991    -199.784     -81.901
  H      -40.492    -197.439     -82.391
  H      -41.339    -196.385     -80.383
  H      -40.841    -199.091     -79.012
  H      -42.813    -196.850     -78.388
  H      -42.647    -198.386     -77.496
  P      -39.079    -195.451     -79.367
  C      -38.067    -195.414     -81.720
  O      -37.871    -195.068     -80.355
  O      -38.836    -195.125     -77.931
  O      -40.306    -194.605     -79.951
  H      -40.850    -194.260     -79.217
  H      -37.211    -195.118     -82.289
  H      -38.935    -194.912     -82.094
  H      -38.203    -196.472     -81.804

 6  7  8  9  10  11  12  13  14  15  16  26  31  32  33  34  35 0
 6-311+G(2d,p)
 ****
 36  37 0
 6-311+G(2d,p)
 ****
 1  2  3  4  5  17  18  19  20  21  22  23  24  25 0
 3-21G
 ****
 27  28  29  30  38  39  40  41  42  43  44  45 0
 3-21G
 ****


