%nproc=1
%NoSave
%Mem=1900MB
#P OB98/GEN NMR

erre ene a

0 1
  C       97.436    -530.008     934.296
  O       97.767    -530.857     935.405
  P       97.711    -532.438     935.170
  C      100.202    -532.526     935.933
  O       99.208    -532.990     935.023
  C      101.359    -533.525     936.004
  O      100.956    -534.743     936.655
  C      101.867    -533.948     934.640
  O      102.696    -532.948     934.077
  C      102.601    -535.248     934.959
  O      103.982    -535.003     935.279
  C      101.842    -535.784     936.197
  N      101.116    -537.013     935.915
  C      101.899    -538.158     935.746
  O      103.133    -538.087     935.819
  N      101.266    -539.353     935.475
  C       99.978    -539.391     935.362
  N       99.412    -540.593     935.087
  C       99.115    -538.193     935.503
  C       99.750    -537.051     935.777
  O       97.123    -532.567     933.682
  O       96.860    -533.174     936.156
  H      103.982    -534.593     936.165
  H       96.584    -533.374     933.601
  H       98.044    -538.268     935.387
  H       99.196    -536.123     935.895
  H      102.540    -535.985     937.018
  H      102.599    -535.934     934.110
  H      101.015    -534.165     933.974
  H      102.178    -533.071     936.586
  H      100.033    -541.389     934.995
  H       99.770    -532.387     936.928
  H       98.414    -540.730     934.966
  H      100.551    -531.539     935.612
  P      101.995    -531.756     933.266
  C      102.962    -530.132     935.004
  O      101.788    -530.581     934.334
  O      100.490    -532.310     933.101
  O      102.596    -531.376     931.959
  H       99.973    -531.714     932.521
  H      102.720    -529.207     935.538
  H      103.765    -529.937     934.282
  H      103.287    -530.885     935.730
  H       97.515    -528.984     934.595
  H       96.435    -530.210     933.978
  H       98.112    -530.197     933.488

 3  4  5  6  7  8  9  10  11  12  13  21  23  27  28  29  30  32 0
 6-311+G(2d,p)
 ****
 34  35 0
 6-311+G(2d,p)
 ****
 1  2  14  15  16  17  18  19  20  22  24  25  26 0
 3-21G
 ****
 31  33  36  37  38  39  40  41  42  43  44  45  46 0
 3-21G
 ****


