%nproc=1
%NoSave
%Mem=1900MB
#P OB98/GEN NMR

erre ene a

0 1
  C      -63.080     -16.158     645.986
  O      -61.678     -16.064     646.116
  H      -63.472     -16.715     646.841
  H      -63.331     -16.700     645.070
  H      -63.543     -15.169     645.970
  P      -60.882     -15.035     645.184
  C      -60.905     -12.748     646.380
  O      -60.194     -13.957     646.150
  C      -59.981     -11.534     646.217
  O      -60.792     -10.352     645.993
  C      -59.160     -11.278     647.484
  O      -57.917     -10.641     647.199
  C      -60.040     -10.317     648.266
  O      -59.314      -9.537     649.214
  C      -60.665      -9.496     647.140
  N      -64.317      -6.142     645.956
  C      -63.039      -6.259     645.445
  N      -62.691      -5.364     644.489
  N      -62.175      -7.153     645.848
  C      -62.636      -7.933     646.855
  C      -63.871      -7.898     647.461
  C      -64.831      -6.926     646.978
  O      -65.967      -6.765     647.414
  N      -63.970      -8.841     648.455
  C      -62.795      -9.441     648.455
  N      -61.960      -8.940     647.485
  O      -62.047     -14.180     644.488
  O      -59.973     -15.654     644.166
  H      -58.812     -10.155     649.776
  H      -61.724     -13.776     643.663
  H      -64.952      -5.455     645.589
  H      -62.508     -10.243     649.120
  H      -60.012      -8.660     646.863
  H      -60.776     -10.903     648.825
  H      -63.251      -4.549     644.298
  H      -58.971     -12.185     648.053
  H      -61.688      -5.234     644.335
  H      -59.350     -11.659     645.328
  H      -61.296     -12.798     647.399
  H      -61.759     -12.677     645.707
  P      -56.587     -11.533     647.165
  C      -56.661     -11.728     644.526
  O      -55.936     -11.479     645.709
  O      -57.132     -13.031     647.282
  O      -55.601     -11.210     648.240
  H      -56.830     -13.437     648.116
  H      -56.010     -11.633     643.682
  H      -57.460     -11.021     644.442
  H      -57.063     -12.719     644.556

 6  7  8  9  10  11  12  13  14  15  26  29  33  34 0
 6-311+G(2d,p)
 ****
 36  38  39  40  41 0
 6-311+G(2d,p)
 ****
 1  2  3  4  5  16  17  18  19  20  21  22  23  24  25 0
 3-21G
 ****
 27  28  30  31  32  35  37  42  43  44  45  46  47 0
 3-21G
 ****
 48  49 0
 3-21G
 ****


