%nproc=1
%NoSave
%Mem=1900MB
#P OB98/GEN NMR

erre ene a

0 1
  C      429.809     -14.671     339.753
  O      428.530     -14.976     339.230
  H      430.467     -15.528     339.586
  H      429.747     -14.480     340.828
  H      430.231     -13.801     339.243
  P      427.363     -13.893     339.386
  C      428.268     -12.286     337.578
  O      428.003     -12.482     338.960
  C      428.302     -10.795     337.252
  O      427.063     -10.169     337.641
  C      429.413     -10.022     337.957
  O      430.644     -10.176     337.267
  C      428.869      -8.606     337.869
  O      429.066      -8.097     336.534
  C      427.365      -8.831     338.124
  N      425.336      -5.853     341.697
  C      425.719      -5.551     340.406
  N      425.567      -4.263     340.022
  N      426.216      -6.426     339.572
  C      426.376      -7.654     340.116
  C      426.050      -8.069     341.383
  C      425.438      -7.108     342.279
  O      425.065      -7.345     343.423
  N      426.446      -9.365     341.606
  C      426.958      -9.747     340.451
  N      426.949      -8.740     339.514
  O      426.662     -13.866     340.712
  O      426.360     -14.215     338.182
  H      428.648      -8.729     335.921
  H      425.658     -14.832     338.465
  H      424.966      -5.134     342.298
  H      427.347     -10.737     340.238
  H      426.741      -8.127     337.561
  H      429.360      -7.919     338.554
  H      425.334      -3.520     340.661
  H      429.492     -10.305     339.014
  H      425.898      -4.014     339.098
  H      428.382     -10.692     336.160
  H      427.472     -12.785     337.015
  H      429.227     -12.741     337.307
  P      432.036      -9.714     337.925
  C      433.423     -11.891     338.100
  O      432.553     -10.984     338.755
  O      431.973      -8.446     338.700
  O      433.058      -9.680     336.697
  H      433.033      -8.824     336.201
  H      433.684     -12.683     338.771
  H      434.310     -11.377     337.794
  H      432.932     -12.299     337.241

 6  7  8  9  10  11  12  13  14  15  26  29  33  34 0
 6-311+G(2d,p)
 ****
 36  38  39  40  41 0
 6-311+G(2d,p)
 ****
 1  2  3  4  5  16  17  18  19  20  21  22  23  24  25 0
 3-21G
 ****
 27  28  30  31  32  35  37  42  43  44  45  46  47 0
 3-21G
 ****
 48  49 0
 3-21G
 ****


