%nproc=1
%NoSave
%Mem=1900MB
#P OB98/GEN NMR

erre ene a

0 1
  C        4.921    -899.435     184.646
  O        5.540    -898.165     184.659
  P        5.290    -897.205     185.905
  C        7.237    -895.755     184.955
  O        5.944    -895.775     185.538
  C        7.636    -894.335     184.569
  O        7.490    -893.455     185.694
  C        9.089    -894.205     184.147
  O        9.295    -894.595     182.784
  C        9.293    -892.705     184.295
  O        8.756    -892.005     183.159
  C        8.491    -892.395     185.558
  N       12.901    -890.805     187.482
  C       12.290    -890.525     186.277
  N       13.020    -889.735     185.427
  N       11.135    -890.935     185.910
  C       10.524    -891.715     186.851
  C       11.018    -892.105     188.097
  C       12.332    -891.635     188.472
  O       12.929    -891.915     189.506
  N       10.113    -892.895     188.777
  C        9.093    -893.005     187.954
  N        9.303    -892.355     186.759
  O        6.267    -897.765     187.034
  O        3.863    -897.135     186.370
  H        9.359    -892.135     182.418
  H        6.004    -897.435     187.921
  H       13.822    -890.465     187.705
  H        8.200    -893.555     188.169
  H        7.940    -891.435     185.478
  H       10.349    -892.415     184.364
  H       13.965    -889.425     185.618
  H        9.769    -894.735     184.815
  H       12.620    -889.525     184.502
  H        6.962    -894.005     183.773
  H        7.252    -896.405     184.068
  H        7.967    -896.175     185.686
  P       10.346    -895.775     182.497
  C        8.751    -896.355     180.536
  O       10.087    -896.245     181.003
  O        9.781    -896.975     183.397
  O       11.760    -895.415     182.861
  H       10.509    -897.575     183.664
  H        8.747    -896.405     179.444
  H        8.171    -895.455     180.839
  H        8.280    -897.255     180.939
  H        5.187    -899.952     183.748
  H        3.859    -899.314     184.686
  H        5.248    -900.000     185.494

 3  4  5  6  7  8  9  10  11  12  23  26  30  31 0
 6-311+G(2d,p)
 ****
 33  35  36  37  38 0
 6-311+G(2d,p)
 ****
 1  2  13  14  15  16  17  18  19  20  21  22  24  25 0
 3-21G
 ****
 27  28  29  32  34  39  40  41  42  43  44  45  46  47  48  49 0
 3-21G
 ****


