%nproc=1
%NoSave
%Mem=1900MB
#P OB98/GEN NMR

erre ene a

0 1
  C     -750.803     594.463    -337.071
  O     -750.935     593.178    -337.648
  P     -752.421     592.588    -337.806
  C     -751.838     590.394    -336.543
  O     -752.300     590.993    -337.739
  C     -752.089     588.887    -336.564
  O     -753.505     588.627    -336.642
  C     -751.482     588.166    -337.762
  O     -750.085     588.002    -337.616
  C     -752.286     586.867    -337.742
  O     -751.763     585.979    -336.745
  C     -753.689     587.364    -337.334
  N     -756.414     585.047    -340.995
  C     -755.610     584.564    -340.028
  N     -754.902     585.243    -339.101
  C     -755.084     586.563    -339.243
  C     -755.858     587.209    -340.201
  C     -756.547     586.394    -341.105
  N     -757.363     586.893    -342.097
  N     -755.785     588.579    -340.037
  C     -754.999     588.751    -339.004
  N     -754.564     587.571    -338.478
  O     -752.766     592.872    -339.340
  O     -753.442     593.193    -336.883
  H     -750.836     585.779    -336.988
  H     -753.722     593.067    -339.454
  H     -755.526     583.474    -339.987
  H     -754.716     589.717    -338.594
  H     -754.192     586.673    -336.650
  H     -752.261     586.333    -338.700
  H     -751.695     588.720    -338.692
  H     -751.707     588.458    -335.637
  H     -752.366     590.821    -335.679
  H     -757.697     586.248    -342.794
  H     -757.353     587.893    -342.259
  H     -750.767     590.608    -336.419
  P     -749.135     588.763    -338.649
  C     -747.699     586.697    -338.134
  O     -747.692     588.080    -338.428
  O     -748.958     590.193    -337.950
  O     -749.632     588.791    -340.058
  H     -748.722     590.105    -337.007
  H     -746.664     586.348    -338.058
  H     -748.207     586.138    -338.932
  H     -748.197     586.527    -337.181
  H     -749.768     594.730    -337.027
  H     -751.211     594.454    -336.082
  H     -751.330     595.178    -337.668

 3  4  5  6  7  8  9  10  11  12  22  25  29  30  31  32 0
 6-311+G(2d,p)
 ****
 33  36  37 0
 6-311+G(2d,p)
 ****
 1  2  13  14  15  16  17  18  19  20  21  23  24  26 0
 3-21G
 ****
 27  28  34  35  38  39  40  41  42  43  44  45  46  47  48 0
 3-21G
 ****


