%nproc=1
%NoSave
%Mem=1900MB
#P OB98/GEN NMR

erre ene a

0 1
  C       57.772     -74.755      36.553
  O       57.952     -76.135      36.280
  P       59.269     -76.902      36.780
  C       60.290     -76.651      34.435
  O       60.468     -76.420      35.827
  C       61.490     -76.131      33.645
  O       61.549     -74.690      33.780
  C       62.824     -76.691      34.129
  O       63.684     -76.879      33.002
  C       63.406     -75.584      34.993
  O       64.841     -75.660      35.041
  C       62.845     -74.337      34.302
  N       65.274     -70.839      37.172
  C       65.738     -71.802      36.347
  N       65.038     -72.714      35.636
  C       63.718     -72.522      35.797
  C       63.096     -71.578      36.600
  C       63.934     -70.707      37.316
  N       63.458     -69.715      38.147
  N       61.721     -71.709      36.533
  C       61.522     -72.698      35.689
  N       62.696     -73.215      35.209
  O       59.129     -78.380      36.902
  O       59.624     -76.221      38.182
  H       65.161     -74.815      35.417
  H       59.950     -76.891      38.812
  H       66.820     -71.853      36.247
  H       60.555     -73.083      35.402
  H       63.476     -74.023      33.461
  H       63.029     -75.681      36.018
  H       62.716     -77.632      34.678
  H       61.336     -76.356      32.583
  H       59.390     -76.120      34.110
  H       64.128     -69.062      38.521
  H       62.469     -69.505      38.119
  H       60.145     -77.722      34.258
  P       64.414     -78.313      32.905
  C       66.442     -77.512      34.328
  O       65.342     -78.385      34.208
  O       65.077     -78.514      31.581
  O       63.191     -79.304      33.200
  H       62.487     -78.862      33.724
  H       66.970     -77.739      35.258
  H       66.100     -76.475      34.369
  H       67.131     -77.646      33.489
  H       56.840     -74.429      36.141
  H       58.572     -74.197      36.112
  H       57.769     -74.598      37.611

 3  4  5  6  7  8  9  10  11  12  22  25  29  30  31  32 0
 6-311+G(2d,p)
 ****
 33  36  37 0
 6-311+G(2d,p)
 ****
 1  2  13  14  15  16  17  18  19  20  21  23  24  26 0
 3-21G
 ****
 27  28  34  35  38  39  40  41  42  43  44  45  46  47  48 0
 3-21G
 ****


