%nproc=1
%NoSave
%Mem=1900MB
#P OB98/GEN NMR

erre ene a

0 1
  C      145.917    -102.887     -44.673
  O      144.699    -102.353     -45.168
  P      144.373    -102.526     -46.730
  C      145.406    -100.264     -47.492
  O      145.462    -101.684     -47.560
  C      145.233     -99.662     -48.886
  O      146.455     -99.845     -49.652
  C      144.094    -100.284     -49.694
  O      143.493     -99.285     -50.530
  C      144.801    -101.273     -50.604
  O      144.029    -101.565     -51.766
  C      146.108    -100.521     -50.877
  N      148.308    -102.708     -54.872
  C      147.409    -101.656     -54.832
  N      146.978    -101.182     -56.019
  N      146.981    -101.111     -53.722
  C      147.492    -101.696     -52.603
  C      148.395    -102.729     -52.518
  C      148.855    -103.330     -53.760
  O      149.630    -104.278     -53.864
  N      148.707    -103.020     -51.213
  C      147.959    -102.193     -50.508
  N      147.181    -101.394     -51.303
  O      143.029    -101.679     -46.907
  O      144.181    -103.941     -47.175
  H      143.286    -102.130     -51.483
  H      142.267    -102.281     -47.002
  H      148.598    -103.100     -55.754
  H      147.927    -102.153     -49.428
  H      145.971     -99.754     -51.648
  H      144.985    -102.214     -50.071
  H      147.222    -101.600     -56.912
  H      143.316    -100.767     -49.091
  H      146.289    -100.444     -56.017
  H      145.084     -98.576     -48.782
  H      146.333     -99.892     -47.048
  H      144.576     -99.961     -46.848
  P      141.890     -99.177     -50.467
  C      141.621    -100.920     -52.391
  O      141.333    -100.566     -51.047
  O      141.549     -98.116     -51.613
  O      141.359     -98.772     -49.131
  H      140.700     -97.672     -51.421
  H      142.230    -101.830     -52.388
  H      142.161    -100.123     -52.920
  H      140.683    -101.115     -52.914
  H      145.991    -102.694     -43.623
  H      146.740    -102.427     -45.179
  H      145.939    -103.943     -44.844

 3  4  5  6  7  8  9  10  11  12  23  26  30  31 0
 6-311+G(2d,p)
 ****
 33  35  36  37  38 0
 6-311+G(2d,p)
 ****
 1  2  13  14  15  16  17  18  19  20  21  22  24  25 0
 3-21G
 ****
 27  28  29  32  34  39  40  41  42  43  44  45  46  47  48  49 0
 3-21G
 ****


