%nproc=1
%NoSave
%Mem=1900MB
#P OB98/GEN NMR

erre ene a

0 1
  C       58.974    -348.051    -267.581
  O       58.206    -348.115    -266.375
  P       56.696    -347.574    -266.437
  C       55.589    -349.704    -267.489
  O       55.767    -348.880    -266.348
  C       54.206    -349.465    -268.098
  O       54.083    -350.145    -269.370
  C       53.056    -349.984    -267.246
  O       52.822    -349.146    -266.126
  C       51.929    -350.011    -268.276
  O       51.376    -348.697    -268.441
  C       52.677    -350.434    -269.553
  N       52.461    -351.833    -269.908
  C       51.307    -352.109    -270.629
  O       50.490    -351.245    -270.946
  N       51.110    -353.420    -270.969
  C       51.922    -354.463    -270.631
  O       51.698    -355.618    -270.972
  C       53.103    -354.119    -269.826
  C       53.319    -352.841    -269.501
  O       56.592    -347.116    -267.965
  O       56.414    -346.505    -265.434
  H       57.099    -347.689    -268.569
  H       50.889    -348.496    -267.618
  H       50.284    -353.640    -271.505
  H       53.758    -354.927    -269.519
  H       54.182    -352.568    -268.905
  H       52.351    -349.819    -270.403
  H       51.112    -350.675    -267.982
  H       53.273    -351.005    -266.910
  H       54.093    -348.388    -268.270
  H       55.677    -350.759    -267.204
  H       56.380    -349.486    -268.210
  P       52.744    -349.866    -264.690
  C       55.101    -350.964    -264.428
  O       54.243    -349.897    -264.115
  O       52.464    -351.385    -265.119
  O       51.715    -349.280    -263.778
  H       53.018    -351.676    -265.860
  H       56.137    -350.649    -264.256
  H       54.999    -351.272    -265.473
  H       54.885    -351.815    -263.772
  H       59.954    -348.441    -267.401
  H       59.048    -347.033    -267.903
  H       58.494    -348.631    -268.341

 3  4  5  6  7  8  9  10  11  12  13  24  28  29  30  31  32 0
 6-311+G(2d,p)
 ****
 33  34 0
 6-311+G(2d,p)
 ****
 1  2  14  15  16  17  18  19  20  21  22  23  25  26  27 0
 3-21G
 ****
 35  36  37  38  39  40  41  42  43  44  45 0
 3-21G
 ****


