%nproc=1
%NoSave
%Mem=1900MB
#P OB98/GEN NMR

erre ene a

0 1
  C      122.050     106.065      82.662
  O      123.487     106.018      82.640
  P      124.250     104.997      83.625
  C      124.458     102.845      82.150
  O      125.100     103.969      82.736
  C      125.469     101.720      81.918
  O      124.806     100.537      81.414
  C      126.546     102.040      80.894
  O      127.543     102.900      81.421
  C      127.063     100.651      80.550
  O      128.025     100.206      81.523
  C      125.776      99.802      80.631
  N      125.249      99.455      79.315
  C      125.936      98.471      78.613
  O      126.973      97.949      79.026
  N      125.412      98.131      77.395
  C      124.334      98.713      76.796
  O      123.924      98.377      75.688
  C      123.697      99.802      77.549
  C      124.181     100.123      78.751
  O      123.047     104.072      84.142
  O      124.967     105.623      84.774
  H      128.544      99.494      81.098
  H      123.261     103.725      85.029
  H      125.881      97.401      76.881
  H      122.852     100.306      77.094
  H      123.719     100.925      79.324
  H      125.969      98.878      81.190
  H      127.554     100.614      79.576
  H      126.090     102.483      80.001
  H      125.924     101.465      82.889
  H      124.022     103.140      81.187
  H      123.652     102.511      82.812
  P      128.056     104.086      80.464
  C      126.348     105.998      80.965
  O      127.621     105.439      81.204
  O      127.048     103.935      79.227
  O      129.502     103.963      80.111
  H      126.168     103.640      79.510
  H      125.597     105.224      80.780
  H      126.403     106.666      80.100
  H      126.050     106.578      81.840
  H      121.706     106.789      81.954
  H      121.717     106.338      83.642
  H      121.658     105.103      82.407

 3  4  5  6  7  8  9  10  11  12  13  23  28  29  30  31  32 0
 6-311+G(2d,p)
 ****
 33  34 0
 6-311+G(2d,p)
 ****
 1  2  14  15  16  17  18  19  20  21  22  24  25  26 0
 3-21G
 ****
 27  35  36  37  38  39  40  41  42  43  44  45 0
 3-21G
 ****


