%nproc=1
%NoSave
%Mem=1900MB
#P OB98/GEN NMR

erre ene a

0 1
  C      -61.062    -274.841     308.858
  O      -60.439    -275.885     308.088
  P      -60.939    -277.401     308.281
  C      -62.979    -278.769     307.368
  O      -62.037    -277.724     307.157
  C      -62.846    -279.830     306.275
  O      -63.111    -279.256     304.976
  C      -61.456    -280.446     306.160
  O      -61.213    -281.394     307.187
  C      -61.515    -281.060     304.765
  O      -62.159    -282.342     304.794
  C      -62.378    -280.036     304.003
  N      -61.589    -279.178     303.119
  C      -61.799    -279.340     301.753
  O      -62.557    -280.184     301.282
  N      -61.078    -278.508     300.936
  C      -60.136    -277.604     301.345
  O      -59.505    -276.903     300.561
  C      -59.901    -277.536     302.792
  C      -60.622    -278.318     303.599
  O      -61.843    -277.289     309.600
  O      -59.863    -278.420     308.462
  H      -62.995    -282.226     305.287
  H      -61.843    -278.146     310.070
  H      -61.235    -278.587     299.946
  H      -59.147    -276.848     303.153
  H      -60.460    -278.281     304.677
  H      -63.133    -280.553     303.400
  H      -60.519    -281.208     304.334
  H      -60.698    -279.654     306.175
  H      -63.600    -280.611     306.464
  H      -63.989    -278.349     307.342
  H      -62.809    -279.209     308.358
  P      -59.980    -281.092     308.171
  C      -59.676    -279.413     310.155
  O      -60.554    -280.062     309.259
  O      -59.040    -280.215     307.216
  O      -59.339    -282.330     308.706
  H      -59.556    -279.663     306.601
  H      -58.702    -279.218     309.698
  H      -59.541    -280.043     311.041
  H      -60.119    -278.462     310.458
  H      -60.615    -273.901     308.611
  H      -60.926    -275.037     309.901
  H      -62.108    -274.809     308.635

 3  4  5  6  7  8  9  10  11  12  13  23  28  29  30  31  32 0
 6-311+G(2d,p)
 ****
 33  34 0
 6-311+G(2d,p)
 ****
 1  2  14  15  16  17  18  19  20  21  22  24  25  26 0
 3-21G
 ****
 27  35  36  37  38  39  40  41  42  43  44  45 0
 3-21G
 ****


