%nproc=1
%NoSave
%Mem=1900MB
#P OB98/GEN NMR

erre ene a

0 1
  C      196.318      -8.564      78.568
  O      195.519      -9.704      78.323
  H      197.145      -8.849      79.221
  H      195.721      -7.799      79.069
  H      196.727      -8.167      77.634
  P      194.446      -9.595      77.134
  C      196.429      -9.854      75.481
  O      195.259      -9.130      75.829
  C      196.511     -10.031      73.968
  O      197.761     -10.652      73.600
  C      195.408     -10.903      73.376
  O      194.217     -10.160      73.153
  C      196.049     -11.314      72.062
  O      195.971     -10.222      71.120
  C      197.509     -11.543      72.478
  N      198.024     -16.340      70.912
  C      197.629     -15.217      70.211
  N      197.320     -15.400      68.910
  N      197.540     -14.023      70.737
  C      197.856     -13.994      72.053
  C      198.254     -15.038      72.858
  C      198.364     -16.348      72.259
  O      198.719     -17.373      72.835
  N      198.488     -14.625      74.142
  C      198.210     -13.337      74.121
  N      197.819     -12.905      72.877
  O      193.602      -8.294      77.539
  O      193.563     -10.784      76.962
  H      196.429      -9.463      71.526
  H      192.752      -8.578      77.924
  H      198.066     -17.237      70.462
  H      198.283     -12.674      74.971
  H      198.214     -11.278      71.681
  H      195.550     -12.167      71.599
  H      197.346     -16.295      68.447
  H      195.222     -11.793      73.990
  H      197.033     -14.589      68.375
  H      196.498      -9.031      73.513
  H      196.398     -10.837      75.962
  H      197.306      -9.306      75.840
  P      192.996     -10.889      72.411
  C      191.926     -12.149      74.408
  O      192.699     -12.244      73.220
  O      193.669     -11.404      71.053
  O      191.812     -10.028      72.138
  H      193.308     -10.907      70.293
  H      191.810     -13.122      74.837
  H      190.963     -11.744      74.176
  H      192.423     -11.509      75.107

 6  7  8  9  10  11  12  13  14  15  26  29  33  34 0
 6-311+G(2d,p)
 ****
 36  38  39  40  41 0
 6-311+G(2d,p)
 ****
 1  2  3  4  5  16  17  18  19  20  21  22  23  24  25 0
 3-21G
 ****
 27  28  30  31  32  35  37  42  43  44  45  46  47 0
 3-21G
 ****
 48  49 0
 3-21G
 ****


