%nproc=1
%NoSave
%Mem=1900MB
#P OB98/GEN NMR

erre ene a

0 1
  C      634.657     127.196    -101.078
  O      633.421     126.520    -101.189
  H      634.966     127.585    -102.051
  H      634.537     128.040    -100.387
  H      635.425     126.524    -100.681
  P      633.383     125.235    -102.151
  C      631.694     126.427    -103.726
  O      632.956     125.789    -103.597
  C      631.550     126.995    -105.134
  O      632.436     128.126    -105.310
  C      631.899     126.018    -106.247
  O      630.833     125.130    -106.536
  C      632.145     126.979    -107.400
  O      630.884     127.437    -107.921
  C      632.885     128.125    -106.699
  N      637.264     130.438    -107.970
  C      635.977     130.823    -108.080
  N      634.863     130.146    -107.721
  C      635.188     128.952    -107.199
  C      636.451     128.419    -107.031
  C      637.536     129.223    -107.437
  N      638.851     128.825    -107.337
  N      636.378     127.146    -106.492
  C      635.091     126.933    -106.311
  N      634.329     127.993    -106.731
  O      632.078     124.442    -101.665
  O      634.610     124.382    -102.143
  H      631.070     128.230    -108.454
  H      632.135     123.508    -101.949
  H      635.818     131.805    -108.519
  H      634.668     126.038    -105.881
  H      632.637     129.104    -107.118
  H      632.689     126.521    -108.229
  H      632.829     125.472    -106.030
  H      630.518     127.366    -105.246
  H      631.626     127.239    -102.997
  H      639.529     129.388    -107.827
  H      639.044     127.865    -107.081
  H      630.895     125.696    -103.524
  P      631.156     123.865    -107.476
  C      629.211     124.278    -109.158
  O      630.619     124.256    -108.938
  O      630.114     122.764    -106.976
  O      632.573     123.386    -107.410
  H      630.450     121.864    -107.146
  H      629.013     124.554    -110.173
  H      628.758     124.990    -108.500
  H      628.805     123.307    -108.967

 6  7  8  9  10  11  12  13  14  15  25  28  32  33  34  35 0
 6-311+G(2d,p)
 ****
 36  39  40 0
 6-311+G(2d,p)
 ****
 1  2  3  4  5  16  17  18  19  20  21  22  23  24 0
 3-21G
 ****
 26  27  29  30  31  37  38  41  42  43  44  45  46  47 0
 3-21G
 ****
 48 0
 3-21G
 ****


