%nproc=1
%NoSave
%Mem=1900MB
#P OB98/GEN NMR

erre ene a

0 1
  C        7.574      27.951     292.311
  O        7.619      29.352     292.583
  P        8.119      30.358     291.441
  C       10.382      31.170     292.377
  O        9.724      30.360     291.415
  C       11.846      31.428     291.967
  O       12.633      30.226     292.161
  C       11.986      31.856     290.495
  O       12.764      33.045     290.329
  C       12.525      30.608     289.817
  O       13.221      30.892     288.610
  C       13.331      29.934     290.936
  N       13.482      28.493     290.710
  C       14.666      28.079     290.110
  O       15.524      28.861     289.701
  N       14.803      26.723     289.931
  C       13.863      25.782     290.217
  O       14.016      24.585     289.994
  C       12.605      26.286     290.793
  C       12.477      27.599     291.009
  O        7.490      31.713     291.449
  O        7.756      29.571     290.089
  H       13.847      31.627     288.780
  H        7.440      30.232     289.436
  H       15.660      26.408     289.509
  H       11.826      25.568     291.011
  H       11.559      27.999     291.421
  H       14.341      30.360     291.002
  H       11.680      29.961     289.555
  H       11.015      32.115     290.057
  H       12.233      32.212     292.630
  H       10.375      30.668     293.344
  H        9.831      32.105     292.508
  P       12.154      34.512     290.168
  C       11.867      34.451     287.588
  O       11.235      34.535     288.852
  O       13.125      35.639     290.274
  O       11.083      34.594     291.361
  H       11.121      35.481     291.765
  H       11.180      34.848     286.832
  H       12.087      33.408     287.358
  H       12.792      35.037     287.565
  H        7.219      27.431     293.176
  H        8.555      27.604     292.064
  H        6.913      27.768     291.489

 3  4  5  6  7  8  9  10  11  12  13  23  28  29  30  31  32 0
 6-311+G(2d,p)
 ****
 33  34 0
 6-311+G(2d,p)
 ****
 1  2  14  15  16  17  18  19  20  21  22  24  25  26  27 0
 3-21G
 ****
 35  36  37  38  39  40  41  42  43  44  45 0
 3-21G
 ****


