%nproc=1
%NoSave
%Mem=1900MB
#P OB98/GEN NMR

erre ene a

0 1
  C     -132.020     486.602    1031.601
  O     -133.070     485.996    1030.871
  H     -131.622     487.431    1031.006
  H     -131.219     485.883    1031.777
  H     -132.383     487.002    1032.553
  P     -133.827     484.747    1031.527
  C     -135.805     485.422    1029.979
  O     -134.971     484.368    1030.448
  C     -136.645     484.950    1028.801
  O     -137.146     483.606    1029.015
  C     -137.892     485.784    1028.520
  O     -137.617     487.037    1027.934
  C     -138.619     484.849    1027.562
  O     -137.992     484.902    1026.274
  C     -138.377     483.479    1028.253
  N     -139.477     483.093    1029.142
  C     -140.391     482.155    1028.627
  O     -140.260     481.691    1027.480
  N     -141.450     481.758    1029.404
  C     -141.615     482.282    1030.587
  N     -142.687     481.877    1031.320
  C     -140.690     483.294    1031.159
  C     -139.656     483.644    1030.378
  O     -134.308     484.926    1032.930
  O     -132.812     483.527    1031.352
  H     -138.081     485.834    1025.953
  H     -133.227     482.718    1031.750
  H     -140.880     483.719    1032.136
  H     -138.941     484.381    1030.735
  H     -138.222     482.692    1027.510
  H     -139.682     485.115    1027.434
  H     -138.497     485.899    1029.434
  H     -135.981     484.906    1027.924
  H     -143.297     481.191    1030.900
  H     -135.168     486.261    1029.696
  H     -142.922     482.276    1032.219
  H     -136.483     485.748    1030.786
  P     -138.446     488.298    1028.494
  C     -136.921     489.932    1027.138
  O     -138.240     489.488    1027.434
  O     -137.603     488.768    1029.767
  O     -139.884     488.012    1028.828
  H     -137.991     488.405    1030.591
  H     -136.964     490.723    1026.419
  H     -136.352     489.118    1026.740
  H     -136.455     490.288    1028.033

 6  7  8  9  10  11  12  13  14  15  16  26  30  31  32  33  35 0
 6-311+G(2d,p)
 ****
 37  38 0
 6-311+G(2d,p)
 ****
 1  2  3  4  5  17  18  19  20  21  22  23  24  25 0
 3-21G
 ****
 27  28  29  34  36  39  40  41  42  43  44  45  46 0
 3-21G
 ****


