%nproc=1
%NoSave
%Mem=1900MB
#P OB98/GEN NMR

erre ene a

0 1
  C     -152.233     913.896    -237.743
  O     -153.510     914.415    -238.076
  H     -152.331     912.987    -237.143
  H     -151.706     913.659    -238.676
  H     -151.658     914.653    -237.197
  P     -154.485     914.734    -236.840
  C     -156.341     913.265    -237.911
  O     -155.539     913.512    -236.759
  C     -157.398     912.209    -237.592
  O     -156.786     910.940    -237.364
  C     -158.215     912.507    -236.328
  O     -159.248     913.459    -236.562
  C     -158.813     911.122    -236.050
  O     -159.964     910.903    -236.912
  C     -157.666     910.179    -236.477
  N     -157.599     907.072    -232.398
  C     -158.550     907.321    -233.314
  N     -158.506     908.175    -234.377
  C     -157.315     908.779    -234.438
  C     -156.240     908.623    -233.564
  C     -156.402     907.731    -232.506
  N     -155.439     907.479    -231.540
  N     -155.168     909.398    -233.948
  C     -155.586     910.025    -235.027
  N     -156.869     909.679    -235.361
  O     -155.378     915.953    -237.374
  O     -153.795     915.061    -235.553
  H     -160.139     909.961    -236.902
  H     -155.560     916.558    -236.621
  H     -159.473     906.769    -233.200
  H     -154.987     910.719    -235.612
  H     -158.024     909.326    -237.040
  H     -159.140     910.988    -235.026
  H     -157.572     912.790    -235.490
  H     -158.069     912.139    -238.462
  H     -155.715     912.910    -238.721
  H     -155.545     906.694    -230.936
  H     -154.550     907.974    -231.632
  H     -156.821     914.208    -238.218
  P     -160.070     913.989    -235.276
  C     -162.379     913.460    -236.320
  O     -161.446     913.162    -235.295
  O     -160.538     915.462    -235.733
  O     -159.326     914.006    -234.010
  H     -160.690     916.023    -234.937
  H     -163.242     912.837    -236.209
  H     -161.930     913.280    -237.274
  H     -162.669     914.487    -236.250

 6  7  8  9  10  11  12  13  14  15  25  28  32  33  34  35 0
 6-311+G(2d,p)
 ****
 36  39  40 0
 6-311+G(2d,p)
 ****
 1  2  3  4  5  16  17  18  19  20  21  22  23  24 0
 3-21G
 ****
 26  27  29  30  31  37  38  41  42  43  44  45  46  47  48 0
 3-21G
 ****


