%nproc=1
%NoSave
%Mem=1900MB
#P OB98/GEN NMR

erre ene a

0 1
  C      322.444     177.044     357.288
  O      322.054     177.423     355.974
  P      321.586     178.946     355.754
  C      319.359     178.118     354.704
  O      320.537     178.899     354.538
  C      318.237     178.645     353.824
  O      317.974     180.025     354.138
  C      318.534     178.616     352.329
  O      318.327     177.328     351.769
  C      317.513     179.617     351.808
  O      316.235     178.970     351.664
  C      317.461     180.656     352.936
  N      317.699     184.990     350.326
  C      316.708     184.027     350.353
  N      315.617     184.264     349.597
  N      316.791     182.926     351.056
  C      317.916     182.843     351.796
  C      318.973     183.733     351.852
  C      318.898     184.919     351.031
  O      319.764     185.778     350.915
  N      319.933     183.308     352.732
  C      319.453     182.190     353.235
  N      318.245     181.846     352.675
  O      322.878     179.629     355.104
  O      321.140     179.657     356.984
  H      316.341     178.271     350.991
  H      322.870     180.590     355.285
  H      317.580     185.826     349.783
  H      319.943     181.597     353.996
  H      316.433     180.960     353.155
  H      317.777     180.025     350.830
  H      315.446     185.147     349.135
  H      319.547     178.983     352.128
  H      314.866     183.585     349.630
  H      317.327     178.070     354.047
  H      319.044     178.163     355.755
  H      319.587     177.076     354.455
  P      319.629     176.549     351.246
  C      318.581     175.295     349.225
  O      319.076     175.221     350.553
  O      320.312     176.034     352.593
  O      320.554     177.390     350.427
  H      321.276     175.913     352.463
  H      319.162     176.001     348.622
  H      317.535     175.604     349.246
  H      318.652     174.309     348.768
  H      322.729     176.013     357.292
  H      321.624     177.190     357.959
  H      323.272     177.644     357.601

 3  4  5  6  7  8  9  10  11  12  23  26  30  31  33  0
 6-311+G(2d,p)
 ****
 35  36  37  38 0
 6-311+G(2d,p)
 ****
 1  2  13  14  15  16  17  18  19  20  21  22  24  25  27  28  29 0
 3-21G
 ****
 32  34  39  40  41  42  43  44  45  46  47  48  49 0
 3-21G
 ****


