%nproc=1
%NoSave
%Mem=1900MB
#P OB98/GEN NMR

erre ene a

0 1
  C      735.208    -236.126    -167.080
  O      736.484    -235.930    -166.512
  H      734.972    -237.194    -167.042
  H      735.205    -235.812    -168.127
  H      734.447    -235.577    -166.522
  P      737.110    -234.453    -166.475
  C      738.021    -234.656    -164.083
  O      737.071    -234.016    -164.925
  C      737.380    -235.797    -163.296
  O      736.890    -236.808    -164.218
  C      738.339    -236.489    -162.317
  O      737.702    -236.646    -161.045
  C      738.565    -237.857    -162.946
  O      738.951    -238.848    -161.997
  C      737.216    -238.084    -163.634
  N      737.280    -239.149    -164.626
  C      736.238    -240.083    -164.593
  O      735.332    -239.975    -163.767
  N      736.276    -241.141    -165.461
  C      737.288    -241.287    -166.257
  N      737.276    -242.372    -167.073
  C      738.423    -240.339    -166.306
  C      738.349    -239.300    -165.474
  O      736.481    -233.486    -167.420
  O      738.673    -234.663    -166.740
  H      738.279    -238.868    -161.279
  H      739.057    -233.821    -167.077
  H      739.243    -240.506    -166.987
  H      739.138    -238.552    -165.437
  H      736.436    -238.332    -162.903
  H      739.359    -237.782    -163.697
  H      739.275    -235.952    -162.181
  H      736.495    -235.405    -162.774
  H      736.483    -243.001    -167.004
  H      738.442    -233.909    -163.402
  H      738.019    -242.604    -167.715
  H      738.821    -235.061    -164.712
  P      737.622    -235.332    -160.128
  C      735.205    -235.590    -159.218
  O      736.086    -234.869    -160.061
  O      738.330    -234.211    -161.024
  O      738.298    -235.489    -158.806
  H      739.191    -233.967    -160.629
  H      734.225    -235.166    -159.280
  H      735.554    -235.536    -158.208
  H      735.171    -236.613    -159.529

 6  7  8  9  10  11  12  13  14  15  16  26  30  31  32  33  35 0
 6-311+G(2d,p)
 ****
 37  38 0
 6-311+G(2d,p)
 ****
 1  2  3  4  5  17  18  19  20  21  22  23  24  25 0
 3-21G
 ****
 27  28  29  34  36  39  40  41  42  43  44  45  46 0
 3-21G
 ****


