%nproc=1
%NoSave
%Mem=1900MB
#P OB98/GEN NMR

erre ene a

0 1
  C       68.791       6.592      43.041
  O       68.078       5.472      42.552
  H       68.962       7.311      42.236
  H       68.195       7.072      43.822
  H       69.746       6.276      43.470
  P       68.802       4.606      41.411
  C       66.749       4.873      39.848
  O       68.145       5.062      40.019
  C       66.416       4.739      38.365
  O       65.047       4.315      38.199
  C       66.545       6.030      37.563
  O       67.895       6.306      37.221
  C       65.718       5.685      36.333
  O       66.494       4.862      35.442
  C       64.570       4.864      36.941
  N       61.242       8.191      34.933
  C       62.294       7.534      34.399
  N       63.121       6.647      34.992
  C       62.761       6.446      36.269
  C       61.701       7.023      36.948
  C       60.920       7.942      36.228
  N       59.885       8.661      36.807
  N       61.658       6.581      38.256
  C       62.685       5.765      38.367
  N       63.377       5.646      37.193
  O       68.209       3.136      41.651
  O       70.294       4.615      41.456
  H       67.276       5.386      35.186
  H       68.840       2.619      42.184
  H       62.504       7.752      33.356
  H       62.967       5.246      39.274
  H       64.288       4.016      36.306
  H       65.400       6.566      35.768
  H       66.079       6.875      38.082
  H       67.059       3.954      37.944
  H       66.210       5.732      40.262
  H       59.730       9.567      36.373
  H       59.870       8.630      37.819
  H       66.448       3.970      40.387
  P       68.493       7.737      37.634
  C       67.917       8.820      35.356
  O       67.702       8.829      36.761
  O       69.954       7.714      36.981
  O       68.557       8.002      39.098
  H       70.625       7.879      37.671
  H       67.333       9.593      34.901
  H       67.626       7.871      34.957
  H       68.954       8.990      35.153

 6  7  8  9  10  11  12  13  14  15  25  28  32  33  34  35 0
 6-311+G(2d,p)
 ****
 36  39  40 0
 6-311+G(2d,p)
 ****
 1  2  3  4  5  16  17  18  19  20  21  22  23  24 0
 3-21G
 ****
 26  27  29  30  31  37  38  41  42  43  44  45  46  47  48 0
 3-21G
 ****


