%nproc=1
%NoSave
%Mem=1900MB
#P OB98/GEN NMR

erre ene a

0 1
  C     -160.513     982.609     230.561
  O     -161.055     982.996     229.312
  H     -159.444     982.818     230.557
  H     -160.663     981.536     230.720
  H     -160.985     983.181     231.371
  P     -162.627     982.751     229.106
  C     -162.136     981.051     227.208
  O     -162.810     982.233     227.593
  C     -161.939     981.023     225.699
  O     -163.207     980.834     225.018
  C     -161.311     982.273     225.109
  O     -159.900     982.246     225.229
  C     -161.771     982.193     223.662
  O     -160.952     981.293     222.889
  C     -163.197     981.636     223.807
  N     -166.677     984.181     221.163
  C     -165.839     983.159     220.783
  N     -165.885     982.800     219.472
  N     -164.999     982.555     221.595
  C     -165.023     983.051     222.853
  C     -165.827     984.046     223.360
  C     -166.768     984.685     222.466
  O     -167.586     985.550     222.761
  N     -165.584     984.247     224.690
  C     -164.616     983.402     224.981
  N     -164.230     982.661     223.887
  O     -163.242     984.228     229.070
  O     -163.289     981.907     230.152
  H     -161.072     981.475     221.938
  H     -164.148     984.208     229.432
  H     -167.300     984.604     220.504
  H     -164.152     983.281     225.952
  H     -163.476     980.968     222.982
  H     -161.723     983.159     223.158
  H     -166.235     983.424     218.764
  H     -161.734     983.173     225.571
  H     -165.260     982.057     219.176
  H     -161.321     980.134     225.462
  H     -162.724     980.179     227.518
  H     -161.155     981.023     227.714
  P     -159.209     983.367     226.157
  C     -157.816     984.285     224.158
  O     -157.808     983.726     225.458
  O     -158.770     982.554     227.466
  O     -160.087     984.537     226.492
  H     -158.593     983.174     228.202
  H     -156.810     984.464     223.840
  H     -158.355     985.209     224.170
  H     -158.289     983.605     223.480

 6  7  8  9  10  11  12  13  14  15  26  29  33  34 0
 6-311+G(2d,p)
 ****
 36  38  39  40  41 0
 6-311+G(2d,p)
 ****
 1  2  3  4  5  16  17  18  19  20  21  22  23  24  25 0
 3-21G
 ****
 27  28  30  31  32  35  37  42  43  44  45  46  47 0
 3-21G
 ****
 48  49 0
 3-21G
 ****


