%nproc=1
%NoSave
%Mem=1900MB
#P OB98/GEN NMR

erre ene a

0 1
  C       74.178     319.280    -172.865
  O       74.437     318.930    -174.211
  H       73.408     320.056    -172.848
  H       75.087     319.673    -172.400
  H       73.817     318.411    -172.306
  P       75.410     317.674    -174.455
  C       77.996     317.455    -174.862
  O       76.876     318.297    -174.653
  C       79.036     318.150    -175.739
  O       78.535     318.203    -177.099
  C       79.353     319.582    -175.303
  O       80.739     319.833    -175.549
  C       78.514     320.429    -176.246
  O       79.027     321.752    -176.378
  C       78.556     319.581    -177.527
  N       77.447     319.881    -178.430
  C       77.659     320.894    -179.371
  O       78.734     321.495    -179.403
  N       76.640     321.231    -180.223
  C       75.485     320.656    -180.107
  N       74.507     321.053    -180.965
  C       75.201     319.615    -179.099
  C       76.219     319.273    -178.310
  O       74.990     317.216    -175.929
  O       75.306     316.603    -173.422
  H       78.403     322.275    -176.928
  H       74.889     317.957    -176.551
  H       74.217     319.170    -179.032
  H       76.101     318.511    -177.547
  H       79.496     319.748    -178.069
  H       77.487     320.503    -175.872
  H       79.124     319.764    -174.251
  H       79.944     317.534    -175.760
  H       74.738     321.787    -181.624
  H       77.686     316.518    -175.337
  H       73.558     320.715    -180.928
  H       78.425     317.212    -173.882
  P       81.838     319.199    -174.573
  C       82.174     318.888    -172.027
  O       81.501     319.600    -173.059
  O       83.260     319.402    -174.981
  O       81.473     317.634    -174.601
  H       82.311     317.133    -174.633
  H       81.856     319.256    -171.074
  H       83.230     319.026    -172.128
  H       81.942     317.846    -172.103

 6  7  8  9  10  11  12  13  14  15  16  26  30  31  32  33  35 0
 6-311+G(2d,p)
 ****
 37  38 0
 6-311+G(2d,p)
 ****
 1  2  3  4  5  17  18  19  20  21  22  23  24  25 0
 3-21G
 ****
 27  28  29  34  36  39  40  41  42  43  44  45  46 0
 3-21G
 ****


