%nproc=1
%NoSave
%Mem=1900MB
#P OB98/GEN NMR

erre ene a

0 1
  C      563.899    -187.729    -248.514
  O      564.030    -188.180    -249.849
  P      562.888    -189.089    -250.536
  C      564.582    -190.971    -251.141
  O      563.429    -190.601    -250.385
  C      564.804    -192.461    -251.038
  O      565.153    -192.816    -249.685
  C      563.596    -193.327    -251.406
  O      563.391    -193.375    -252.801
  C      563.972    -194.644    -250.736
  O      564.898    -195.370    -251.550
  C      564.671    -194.168    -249.450
  N      563.792    -194.217    -248.277
  C      563.390    -195.491    -247.849
  O      563.758    -196.503    -248.439
  N      562.585    -195.586    -246.726
  C      562.209    -194.510    -246.120
  N      561.467    -194.668    -244.982
  C      562.558    -193.138    -246.568
  C      563.345    -193.069    -247.638
  O      562.530    -188.696    -251.921
  O      561.672    -189.053    -249.505
  H      565.250    -196.098    -251.004
  H      561.051    -188.299    -249.652
  H      562.207    -192.286    -246.022
  H      563.669    -192.120    -248.011
  H      565.550    -194.776    -249.253
  H      563.097    -195.284    -250.545
  H      562.697    -192.913    -250.932
  H      565.654    -192.738    -251.690
  H      561.392    -195.617    -244.622
  H      565.451    -190.440    -250.727
  H      561.378    -193.922    -244.300
  H      564.432    -190.644    -252.188
  P      562.003    -193.934    -253.345
  C      562.953    -196.030    -254.549
  O      562.189    -195.528    -253.476
  O      561.953    -193.410    -254.849
  O      560.805    -193.492    -252.553
  H      561.378    -192.633    -254.922
  H      563.172    -197.081    -254.370
  H      563.896    -195.475    -254.645
  H      562.363    -195.947    -255.478
  H      564.756    -187.145    -248.249
  H      563.825    -188.571    -247.859
  H      563.017    -187.129    -248.425

 3  4  5  6  7  8  9  10  11  12  13  23  27  28  29  30  32 0
 6-311+G(2d,p)
 ****
 34  35 0
 6-311+G(2d,p)
 ****
 1  2  14  15  16  17  18  19  20  21  22  24  25  26 0
 3-21G
 ****
 31  33  36  37  38  39  40  41  42  43  44  45  46 0
 3-21G
 ****


