%nproc=1
%NoSave
%Mem=1900MB
#P OB98/GEN NMR

erre ene a

0 1
  C     -252.920     -33.218    -501.644
  O     -253.754     -33.817    -502.615
  H     -253.060     -33.740    -500.693
  H     -253.179     -32.165    -501.508
  H     -251.869     -33.308    -501.937
  P     -253.819     -33.158    -504.074
  C     -252.709     -35.013    -505.491
  O     -252.567     -33.733    -504.894
  C     -251.779     -36.034    -504.822
  O     -252.176     -36.194    -503.432
  C     -251.821     -37.429    -505.475
  O     -250.528     -38.024    -505.292
  C     -252.857     -38.128    -504.617
  O     -252.833     -39.520    -504.806
  C     -252.476     -37.595    -503.231
  N     -253.525     -37.792    -502.247
  C     -253.443     -38.960    -501.482
  O     -252.527     -39.758    -501.667
  N     -254.420     -39.208    -500.551
  C     -255.429     -38.395    -500.437
  N     -256.366     -38.704    -499.503
  C     -255.580     -37.178    -501.269
  C     -254.601     -36.941    -502.143
  O     -253.960     -31.674    -504.111
  O     -255.070     -33.880    -504.768
  H     -252.812     -39.749    -505.763
  H     -255.829     -33.268    -504.800
  H     -256.444     -36.546    -501.154
  H     -254.622     -36.078    -502.797
  H     -251.559     -38.079    -502.867
  H     -253.864     -37.794    -504.884
  H     -252.075     -37.399    -506.537
  H     -250.758     -35.630    -504.819
  H     -256.227     -39.548    -498.969
  H     -252.452     -34.911    -506.552
  H     -257.199     -38.154    -499.347
  H     -253.745     -35.354    -505.412
  P     -249.249     -37.620    -506.175
  C     -247.208     -38.078    -504.669
  O     -248.087     -37.095    -505.210
  O     -249.563     -36.701    -507.308
  O     -248.677     -39.012    -506.728
  H     -248.256     -38.855    -507.597
  H     -246.481     -37.602    -504.045
  H     -246.712     -38.591    -505.467
  H     -247.771     -38.779    -504.089

 6  7  8  9  10  11  12  13  14  15  16  26  30  31  32  33  35 0
 6-311+G(2d,p)
 ****
 37  38 0
 6-311+G(2d,p)
 ****
 1  2  3  4  5  17  18  19  20  21  22  23  24  25 0
 3-21G
 ****
 27  28  29  34  36  39  40  41  42  43  44  45  46 0
 3-21G
 ****


