%nproc=1
%NoSave
%Mem=1900MB
#P OB98/GEN NMR

erre ene a

0 1
  C      178.580     308.162     378.548
  O      179.686     308.839     379.127
  P      179.460     309.578     380.538
  C      178.702     311.979     381.291
  O      178.887     311.042     380.238
  C      178.650     313.418     380.747
  O      179.958     313.766     380.251
  C      177.696     313.640     379.583
  O      177.429     315.042     379.471
  C      178.535     313.192     378.402
  O      178.022     313.693     377.171
  C      179.948     313.695     378.794
  N      181.047     312.828     378.311
  C      181.351     312.846     376.951
  O      180.774     313.533     376.116
  N      182.353     311.997     376.551
  C      183.079     311.170     377.369
  O      183.909     310.374     376.952
  C      182.815     311.302     378.811
  C      181.814     312.099     379.201
  O      180.940     309.838     381.080
  O      178.637     308.777     381.500
  H      178.287     314.648     377.125
  H      181.155     309.219     381.789
  H      182.547     311.948     375.567
  H      183.410     310.726     379.501
  H      181.589     312.188     380.263
  H      180.133     314.709     378.392
  H      178.536     312.103     378.341
  H      176.749     313.080     379.645
  H      178.419     314.100     381.578
  H      179.522     311.877     382.023
  H      177.767     311.755     381.827
  P      175.922     315.542     379.720
  C      173.940     315.943     378.129
  O      175.092     315.153     378.395
  O      175.771     316.948     380.195
  O      175.367     314.494     380.805
  H      174.585     314.865     381.247
  H      173.788     315.968     377.046
  H      174.058     316.977     378.493
  H      173.070     315.485     378.607
  H      178.878     307.722     377.619
  H      177.786     308.859     378.375
  H      178.243     307.395     379.214

 3  4  5  6  7  8  9  10  11  12  13  23  28  29  30  31  32 0
 6-311+G(2d,p)
 ****
 33  34 0
 6-311+G(2d,p)
 ****
 1  2  14  15  16  17  18  19  20  21  22  24  25  26  27 0
 3-21G
 ****
 35  36  37  38  39  40  41  42  43  44  45 0
 3-21G
 ****


