%nproc=1
%NoSave
%Mem=1900MB
#P OB98/GEN NMR

erre ene a

0 1
  C      -86.853     116.476    -132.422
  O      -86.444     117.168    -133.605
  P      -86.922     116.541    -135.008
  C      -88.482     118.494    -135.738
  O      -88.379     117.136    -135.327
  C      -89.518     118.644    -136.847
  O      -89.114     117.937    -138.033
  C      -90.892     118.083    -136.503
  O      -91.636     118.978    -135.692
  C      -91.519     117.959    -137.886
  O      -92.051     119.232    -138.295
  C      -90.314     117.573    -138.759
  N      -88.808     114.081    -142.112
  C      -88.689     115.454    -142.154
  N      -88.054     115.972    -143.227
  N      -89.150     116.253    -141.223
  C      -89.735     115.596    -140.195
  C      -89.917     114.240    -140.040
  C      -89.431     113.371    -141.091
  O      -89.537     112.151    -141.118
  N      -90.545     113.952    -138.858
  C      -90.722     115.124    -138.282
  N      -90.258     116.157    -139.064
  O      -87.222     115.014    -134.634
  O      -85.913     116.664    -136.101
  H      -92.667     119.523    -137.593
  H      -87.110     114.449    -135.422
  H      -88.443     113.514    -142.855
  H      -91.167     115.281    -137.312
  H      -90.303     118.127    -139.704
  H      -92.344     117.246    -137.913
  H      -87.611     115.414    -143.943
  H      -90.803     117.091    -136.040
  H      -87.923     116.977    -143.258
  H      -89.605     119.712    -137.093
  H      -87.513     118.847    -136.096
  H      -88.745     119.109    -134.870
  P      -91.835     118.579    -134.149
  C      -90.612     120.743    -133.414
  O      -90.666     119.335    -133.356
  O      -91.395     117.038    -134.115
  O      -93.221     118.780    -133.633
  H      -91.868     116.573    -133.401
  H      -91.608     121.186    -133.307
  H      -90.174     121.058    -134.367
  H      -89.980     121.108    -132.600
  H      -86.476     116.987    -131.561
  H      -86.468     115.478    -132.441
  H      -87.922     116.445    -132.378

 3  4  5  6  7  8  9  10  11  12  23  26  30  31  33  0
 6-311+G(2d,p)
 ****
 35  36  37  38 0
 6-311+G(2d,p)
 ****
 1  2  13  14  15  16  17  18  19  20  21  22  24  25  27  28  29 0
 3-21G
 ****
 32  34  39  40  41  42  43  44  45  46  47  48  49 0
 3-21G
 ****


