%nproc=1
%NoSave
%Mem=1900MB
#P OB98/GEN NMR

erre ene a

0 1
  C     -114.832    -280.140    -154.494
  O     -114.001    -279.193    -153.849
  P     -114.382    -278.639    -152.386
  C     -113.981    -276.144    -152.918
  O     -113.535    -277.289    -152.182
  C     -113.138    -274.929    -152.549
  O     -113.299    -274.585    -151.151
  C     -111.636    -275.134    -152.718
  O     -111.147    -275.326    -154.024
  C     -111.079    -273.961    -151.940
  O     -111.112    -272.763    -152.719
  C     -112.097    -273.851    -150.771
  N     -111.544    -274.364    -149.513
  C     -111.168    -273.410    -148.580
  O     -111.287    -272.193    -148.756
  N     -110.621    -273.891    -147.415
  C     -110.369    -275.197    -147.125
  O     -109.825    -275.550    -146.072
  C     -110.774    -276.163    -148.160
  C     -111.333    -275.715    -149.283
  O     -114.254    -279.638    -151.273
  O     -115.871    -278.083    -152.572
  H     -110.995    -272.011    -152.099
  H     -115.968    -277.372    -153.248
  H     -110.334    -273.202    -146.730
  H     -110.602    -277.225    -147.948
  H     -111.646    -276.417    -150.072
  H     -112.407    -272.812    -150.605
  H     -110.051    -274.113    -151.625
  H     -111.359    -276.046    -152.169
  H     -113.492    -274.079    -153.133
  H     -115.019    -275.956    -152.665
  H     -113.938    -276.353    -153.995
  P     -110.551    -276.738    -154.540
  C     -108.828    -275.379    -155.931
  O     -109.745    -276.468    -155.887
  O     -111.485    -277.915    -154.519
  O     -109.364    -276.985    -153.493
  H     -109.262    -277.947    -153.364
  H     -108.396    -275.320    -156.927
  H     -108.011    -275.546    -155.222
  H     -109.336    -274.441    -155.726
  H     -114.418    -280.386    -155.450
  H     -115.810    -279.726    -154.625
  H     -114.896    -281.024    -153.895

 3  4  5  6  7  8  9  10  11  12  13  23  28  29  30  31  32 0
 6-311+G(2d,p)
 ****
 33  34 0
 6-311+G(2d,p)
 ****
 1  2  14  15  16  17  18  19  20  21  22  24  25  26  27 0
 3-21G
 ****
 35  36  37  38  39  40  41  42  43  44  45 0
 3-21G
 ****


