%nproc=1
%NoSave
%Mem=1900MB
#P OB98/GEN NMR

erre ene a

0 1
  C      454.001    -375.086     289.744
  O      453.556    -374.483     288.534
  P      452.519    -375.316     287.630
  C      450.593    -375.574     289.356
  O      451.664    -376.202     288.665
  C      449.266    -376.253     289.019
  O      448.811    -375.834     287.718
  C      449.329    -377.773     288.963
  O      449.238    -378.361     290.251
  C      448.080    -378.081     288.156
  O      446.915    -378.004     289.000
  C      448.074    -376.941     287.135
  N      447.238    -379.186     282.613
  C      446.453    -379.047     283.706
  N      446.755    -378.444     284.876
  C      448.017    -377.992     284.871
  C      448.948    -378.090     283.841
  C      448.509    -378.715     282.658
  N      449.294    -378.837     281.536
  N      450.137    -377.511     284.203
  C      449.937    -377.054     285.424
  N      448.671    -377.307     285.864
  O      453.451    -376.393     286.909
  O      451.735    -374.501     286.659
  H      447.083    -378.564     289.769
  H      453.025    -376.704     286.083
  H      445.459    -379.460     283.624
  H      450.678    -376.527     286.017
  H      447.060    -376.577     286.929
  H      448.091    -379.089     287.722
  H      450.214    -378.108     288.424
  H      448.517    -375.928     289.760
  H      450.537    -374.524     289.062
  H      448.848    -379.123     280.685
  H      450.157    -378.312     281.508
  H      450.780    -375.625     290.434
  P      449.606    -379.924     290.366
  C      452.188    -379.600     290.242
  O      451.012    -380.078     289.600
  O      448.555    -380.616     289.376
  O      449.537    -380.470     291.750
  H      448.404    -381.538     289.644
  H      453.051    -380.055     289.749
  H      452.197    -379.869     291.294
  H      452.245    -378.516     290.127
  H      454.682    -374.427     290.242
  H      454.496    -376.009     289.522
  H      453.160    -375.276     290.378

 3  4  5  6  7  8  9  10  11  12  22  25  29  30  31  32 0
 6-311+G(2d,p)
 ****
 33  36  37 0
 6-311+G(2d,p)
 ****
 1  2  13  14  15  16  17  18  19  20  21  23  24  26 0
 3-21G
 ****
 27  28  34  35  38  39  40  41  42  43  44  45  46  47  48 0
 3-21G
 ****


