%nproc=1
%NoSave
%Mem=1900MB
#P OB98/GEN NMR

erre ene a

0 1
  C      142.385     223.689    -269.956
  O      143.197     224.631    -269.286
  H      141.936     222.998    -269.238
  H      141.585     224.221    -270.478
  H      142.975     223.133    -270.688
  P      144.416     224.048    -268.421
  C      145.737     222.581    -270.100
  O      145.648     223.831    -269.431
  C      147.065     222.487    -270.850
  O      147.229     221.127    -271.319
  C      147.183     223.427    -272.062
  O      148.317     224.289    -271.913
  C      147.437     222.497    -273.240
  O      148.404     223.005    -274.158
  C      147.911     221.211    -272.577
  N      149.218     218.750    -276.843
  C      149.901     219.623    -276.073
  N      149.536     220.163    -274.891
  C      148.340     219.688    -274.502
  C      147.540     218.776    -275.168
  C      148.016     218.310    -276.406
  N      147.295     217.462    -277.218
  N      146.375     218.538    -274.459
  C      146.453     219.326    -273.407
  N      147.613     220.056    -273.399
  O      143.944     222.556    -268.080
  O      144.741     224.820    -267.186
  H      148.536     222.314    -274.836
  H      144.075     222.380    -267.129
  H      150.862     219.942    -276.461
  H      145.688     219.444    -272.651
  H      148.991     221.220    -272.379
  H      146.496     222.343    -273.779
  H      146.280     224.027    -272.223
  H      147.876     222.684    -270.137
  H      144.917     222.489    -270.818
  H      147.659     217.274    -278.137
  H      146.354     217.219    -276.946
  H      145.650     221.776    -269.364
  P      148.009     225.836    -271.595
  C      147.807     225.606    -269.011
  O      148.540     226.134    -270.110
  O      146.417     225.859    -271.431
  O      148.477     226.777    -272.655
  H      146.070     226.744    -271.652
  H      148.283     225.889    -268.096
  H      147.777     224.539    -269.082
  H      146.810     225.993    -269.028

 6  7  8  9  10  11  12  13  14  15  25  28  32  33  34  35 0
 6-311+G(2d,p)
 ****
 36  39  40 0
 6-311+G(2d,p)
 ****
 1  2  3  4  5  16  17  18  19  20  21  22  23  24 0
 3-21G
 ****
 26  27  29  30  31  37  38  41  42  43  44  45  46  47  48 0
 3-21G
 ****


