%nproc=1
%NoSave
%Mem=1900MB
#P OB98/GEN NMR

erre ene a

0 1
  C       87.495     184.741     498.809
  O       86.422     185.626     499.059
  P       85.434     185.963     497.837
  C       83.400     184.907     499.078
  O       84.212     184.926     497.915
  C       82.095     184.166     498.784
  O       82.355     182.755     498.585
  C       81.083     184.237     499.920
  O       80.401     185.486     499.924
  C       80.178     183.054     499.605
  O       79.195     183.406     498.624
  C       81.183     182.037     499.025
  N       81.518     180.982     499.982
  C       80.634     179.908     500.038
  O       79.608     179.847     499.353
  N       80.944     178.922     500.941
  C       81.993     178.933     501.806
  O       82.183     178.048     502.633
  C       82.885     180.104     501.722
  C       82.602     181.063     500.833
  O       86.256     185.490     496.543
  O       85.029     187.395     497.745
  H       78.698     182.586     498.414
  H       86.072     186.094     495.797
  H       80.325     178.132     500.979
  H       83.727     180.145     502.399
  H       83.238     181.942     500.761
  H       80.767     181.564     498.127
  H       79.638     182.696     500.488
  H       81.583     184.060     500.878
  H       81.666     184.567     497.855
  H       83.181     185.937     499.382
  H       83.949     184.417     499.892
  P       80.198     186.190     501.350
  C       81.499     188.437     501.064
  O       81.492     187.115     501.551
  O       80.412     184.949     502.335
  O       78.878     186.872     501.484
  H       81.056     184.307     501.986
  H       80.511     188.909     501.157
  H       81.804     188.440     500.011
  H       82.223     189.023     501.639
  H       88.065     184.609     499.705
  H       88.122     185.148     498.044
  H       87.110     183.795     498.489

 3  4  5  6  7  8  9  10  11  12  13  23  28  29  30  31  32 0
 6-311+G(2d,p)
 ****
 33  34 0
 6-311+G(2d,p)
 ****
 1  2  14  15  16  17  18  19  20  21  22  24  25  26 0
 3-21G
 ****
 27  35  36  37  38  39  40  41  42  43  44  45 0
 3-21G
 ****


