%nproc=1
%NoSave
%Mem=1900MB
#P OB98/GEN NMR

erre ene a

0 1
  C     -249.552    -325.121    -431.063
  O     -250.279    -323.957    -430.742
  H     -249.076    -324.979    -432.038
  H     -250.217    -325.982    -431.117
  H     -248.771    -325.299    -430.313
  P     -251.128    -323.921    -429.382
  C     -253.652    -323.878    -428.844
  O     -252.647    -324.261    -429.773
  C     -254.933    -324.678    -429.094
  O     -255.338    -324.468    -430.462
  C     -254.740    -326.190    -428.874
  O     -255.696    -326.750    -427.975
  C     -254.675    -326.742    -430.292
  O     -255.071    -328.092    -430.416
  C     -255.538    -325.751    -431.090
  N     -255.205    -325.694    -432.512
  C     -256.065    -326.337    -433.394
  O     -257.091    -326.935    -433.078
  N     -255.712    -326.261    -434.727
  C     -254.610    -325.644    -435.230
  O     -254.351    -325.614    -436.428
  C     -253.730    -325.008    -434.245
  C     -254.052    -325.062    -432.952
  O     -250.961    -322.699    -428.541
  O     -250.657    -325.237    -428.594
  H     -256.026    -328.137    -430.198
  H     -250.066    -324.988    -427.864
  H     -256.339    -326.708    -435.372
  H     -252.830    -324.519    -434.613
  H     -253.421    -324.604    -432.195
  H     -256.597    -326.012    -431.008
  H     -253.627    -326.673    -430.648
  H     -253.779    -326.388    -428.375
  H     -255.737    -324.282    -428.449
  H     -253.845    -322.805    -428.974
  H     -253.294    -324.052    -427.824
  P     -255.381    -327.861    -426.872
  C     -255.205    -330.488    -426.907
  O     -255.757    -329.299    -427.466
  O     -255.862    -327.561    -425.485
  O     -253.766    -327.893    -426.819
  H     -253.527    -328.120    -425.898
  H     -255.576    -331.338    -427.440
  H     -255.486    -330.562    -425.877
  H     -254.138    -330.457    -426.984

 6  7  8  9  10  11  12  13  14  15  16  26  31  32  33  34  35 0
 6-311+G(2d,p)
 ****
 36  37 0
 6-311+G(2d,p)
 ****
 1  2  3  4  5  17  18  19  20  21  22  23  24  25 0
 3-21G
 ****
 27  28  29  30  38  39  40  41  42  43  44  45 0
 3-21G
 ****


