%nproc=1
%NoSave
%Mem=1900MB
#P OB98/GEN NMR

erre ene a

0 1
  C       63.326      16.003     147.438
  O       64.739      15.819     147.309
  P       65.446      16.156     145.910
  C       65.626      18.717     146.150
  O       66.330      17.486     146.077
  C       66.444      19.775     146.913
  O       66.682      19.328     148.272
  C       67.808      20.059     146.259
  O       68.051      21.452     146.051
  C       68.792      19.344     147.173
  O       70.107      19.873     147.098
  C       68.098      19.408     148.539
  N       68.555      18.347     149.441
  C       69.868      18.435     149.893
  O       70.657      19.297     149.511
  N       70.269      17.446     150.752
  C       69.531      16.370     151.138
  O       69.955      15.487     151.874
  C       68.172      16.294     150.578
  C       67.754      17.275     149.768
  O       64.556      16.131     144.710
  O       66.571      15.011     145.797
  H       70.057      20.841     147.242
  H       66.620      14.725     144.863
  H       71.212      17.504     151.104
  H       67.562      15.442     150.841
  H       66.762      17.238     149.334
  H       68.297      20.361     149.036
  H       68.853      18.292     146.863
  H       67.870      19.628     145.254
  H       65.840      20.689     146.949
  H       64.678      18.567     146.670
  H       65.369      19.050     145.139
  P       68.469      22.097     144.650
  C       66.087      22.267     143.641
  O       67.234      22.956     144.104
  O       69.073      21.157     143.654
  O       69.540      23.219     145.072
  H       70.273      23.222     144.422
  H       65.519      22.933     142.984
  H       65.455      21.998     144.495
  H       66.352      21.360     143.085
  H       63.020      15.734     148.427
  H       62.819      15.384     146.727
  H       63.082      17.029     147.256

 3  4  5  6  7  8  9  10  11  12  13  23  28  29  30  31  32 0
 6-311+G(2d,p)
 ****
 33  34 0
 6-311+G(2d,p)
 ****
 1  2  14  15  16  17  18  19  20  21  22  24  25  26  27 0
 3-21G
 ****
 35  36  37  38  39  40  41  42  43  44  45 0
 3-21G
 ****


