%nproc=1
%NoSave
%Mem=1900MB
#P OB98/GEN NMR

erre ene a

0 1
  C     1324.118    -334.764     -47.917
  O     1324.874    -335.958     -47.730
  P     1324.203    -337.327     -47.193
  C     1323.981    -336.169     -44.898
  O     1324.457    -337.310     -45.624
  C     1323.267    -336.627     -43.623
  O     1321.980    -337.181     -43.980
  C     1323.983    -337.723     -42.828
  O     1324.983    -337.259     -41.932
  C     1322.790    -338.262     -42.003
  O     1322.530    -337.391     -40.882
  C     1321.659    -338.213     -43.032
  N     1321.179    -343.283     -42.435
  C     1321.304    -342.263     -41.534
  N     1321.462    -340.955     -41.772
  C     1321.396    -340.708     -43.089
  C     1321.240    -341.618     -44.122
  C     1321.113    -342.964     -43.763
  N     1320.951    -343.997     -44.672
  N     1321.226    -340.976     -45.365
  C     1321.351    -339.690     -45.072
  N     1321.469    -339.488     -43.712
  O     1324.607    -338.544     -47.946
  O     1322.629    -337.026     -47.312
  H     1322.238    -336.546     -41.248
  H     1322.127    -337.881     -47.263
  H     1321.354    -342.563     -40.496
  H     1321.405    -338.910     -45.799
  H     1320.692    -337.948     -42.568
  H     1323.006    -339.265     -41.592
  H     1324.349    -338.518     -43.467
  H     1323.088    -335.743     -42.993
  H     1323.266    -335.637     -45.537
  H     1320.735    -344.923     -44.298
  H     1320.748    -343.741     -45.642
  H     1324.808    -335.514     -44.685
  P     1326.138    -338.286     -41.534
  C     1325.119    -339.784     -39.614
  O     1325.895    -338.637     -39.975
  O     1327.521    -337.852     -41.882
  O     1325.685    -339.642     -42.275
  H     1324.863    -340.047     -41.948
  H     1325.219    -339.929     -38.546
  H     1325.505    -340.668     -40.133
  H     1324.081    -339.612     -39.879
  H     1324.761    -333.988     -48.277
  H     1323.686    -334.466     -46.985
  H     1323.340    -334.942     -48.630

 3  4  5  6  7  8  9  10  11  12  22  25  29  30  31  32 0
 6-311+G(2d,p)
 ****
 33  36  37 0
 6-311+G(2d,p)
 ****
 1  2  13  14  15  16  17  18  19  20  21  23  24  26 0
 3-21G
 ****
 27  28  34  35  38  39  40  41  42  43  44  45  46  47  48 0
 3-21G
 ****


