%nproc=1
%NoSave
%Mem=1900MB
#P OB98/GEN NMR

erre ene a

0 1
  C      -26.659       1.116      66.129
  O      -26.521       2.389      65.521
  P      -27.725       2.899      64.588
  C      -26.319       2.776      62.407
  O      -27.451       2.298      63.125
  C      -26.604       4.133      61.760
  O      -25.446       4.538      60.990
  C      -27.818       4.138      60.829
  O      -28.478       5.397      60.976
  C      -27.201       4.066      59.445
  O      -28.072       4.602      58.451
  C      -25.896       4.852      59.655
  N      -24.885       4.518      58.658
  C      -24.111       5.575      58.166
  O      -24.351       6.730      58.518
  N      -23.123       5.302      57.253
  C      -22.991       4.098      56.790
  N      -21.997       3.879      55.890
  C      -23.868       2.981      57.190
  C      -24.769       3.254      58.133
  O      -27.407       4.456      64.413
  O      -29.090       2.657      65.146
  H      -27.990       5.583      58.470
  H      -28.232       4.972      64.327
  H      -23.741       2.003      56.745
  H      -25.439       2.490      58.504
  H      -26.085       5.932      59.615
  H      -26.984       3.022      59.186
  H      -28.519       3.325      61.040
  H      -26.737       4.872      62.560
  H      -21.417       4.663      55.621
  H      -26.074       2.064      61.613
  H      -21.819       2.973      55.474
  H      -25.462       2.842      63.083
  P      -29.999       5.501      60.477
  C      -29.320       7.523      59.049
  O      -29.920       6.242      59.059
  O      -30.562       6.673      61.419
  O      -30.858       4.284      60.560
  H      -31.516       6.795      61.256
  H      -29.209       7.850      58.012
  H      -28.334       7.488      59.517
  H      -29.960       8.238      59.574
  H      -25.790       0.906      66.717
  H      -26.766       0.368      65.371
  H      -27.525       1.113      66.758

 3  4  5  6  7  8  9  10  11  12  13  21  23  27  28  29  30  32 0
 6-311+G(2d,p)
 ****
 34  35 0
 6-311+G(2d,p)
 ****
 1  2  14  15  16  17  18  19  20  22  24  25  26 0
 3-21G
 ****
 31  33  36  37  38  39  40  41  42  43  44  45  46 0
 3-21G
 ****


