%nproc=1
%NoSave
%Mem=1900MB
#P OB98/GEN NMR

erre ene a

0 1
  C     -205.299     242.135    -240.467
  O     -204.021     242.315    -241.061
  P     -203.518     243.769    -241.524
  C     -200.974     243.564    -241.196
  O     -202.202     244.052    -240.657
  C     -200.506     242.343    -240.402
  O     -201.538     241.328    -240.471
  C     -199.237     241.664    -240.925
  O     -198.026     242.250    -240.480
  C     -199.389     240.277    -240.306
  O     -199.001     240.320    -238.917
  C     -200.892     240.029    -240.427
  N     -201.815     235.362    -242.318
  C     -201.526     235.796    -241.063
  N     -201.277     237.055    -240.646
  C     -201.389     237.921    -241.665
  C     -201.681     237.633    -242.991
  C     -201.902     236.281    -243.308
  N     -202.223     235.849    -244.578
  N     -201.690     238.792    -243.749
  C     -201.427     239.750    -242.894
  N     -201.241     239.279    -241.623
  O     -204.568     244.830    -241.480
  O     -202.934     243.532    -242.992
  H     -199.563     240.996    -238.488
  H     -202.851     244.388    -243.460
  H     -201.481     235.019    -240.299
  H     -201.352     240.798    -243.146
  H     -201.304     239.494    -239.564
  H     -198.758     239.523    -240.789
  H     -199.255     241.569    -242.020
  H     -200.387     242.637    -239.354
  H     -200.228     244.360    -241.117
  H     -202.489     234.887    -244.682
  H     -202.446     236.548    -245.273
  H     -201.107     243.319    -242.256
  P     -197.049     242.854    -241.600
  C     -196.974     245.245    -240.533
  O     -197.343     244.428    -241.629
  O     -197.113     242.165    -242.922
  O     -195.611     242.759    -240.900
  H     -195.484     243.340    -240.133
  H     -197.109     246.290    -240.818
  H     -195.920     245.089    -240.263
  H     -197.616     245.023    -239.672
  H     -205.441     241.101    -240.233
  H     -206.058     242.453    -241.151
  H     -205.360     242.715    -239.570

 3  4  5  6  7  8  9  10  11  12  22  25  29  30  31  32 0
 6-311+G(2d,p)
 ****
 33  36  37 0
 6-311+G(2d,p)
 ****
 1  2  13  14  15  16  17  18  19  20  21  23  24  26 0
 3-21G
 ****
 27  28  34  35  38  39  40  41  42  43  44  45  46  47  48 0
 3-21G
 ****


