%nproc=1
%NoSave
%Mem=1900MB
#P OB98/GEN NMR

erre ene a

0 1
  C     -473.579     668.403    -649.039
  O     -472.345     667.991    -649.585
  H     -474.290     668.576    -649.852
  H     -473.438     669.337    -648.493
  H     -473.981     667.635    -648.371
  P     -471.158     667.655    -648.542
  C     -471.968     665.178    -648.299
  O     -471.711     666.438    -647.646
  C     -471.559     664.038    -647.345
  O     -470.122     663.971    -647.222
  C     -472.166     664.176    -645.923
  O     -472.648     662.907    -645.487
  C     -470.979     664.607    -645.085
  O     -471.118     664.254    -643.716
  C     -469.795     663.958    -645.843
  N     -468.542     664.690    -645.597
  C     -468.010     664.583    -644.279
  O     -468.596     663.919    -643.410
  N     -466.856     665.279    -643.990
  C     -466.301     666.034    -644.867
  N     -465.176     666.695    -644.489
  C     -466.864     666.195    -646.227
  C     -467.951     665.514    -646.527
  O     -471.183     668.898    -647.551
  O     -469.816     667.393    -649.164
  H     -471.451     663.341    -643.680
  H     -470.386     668.939    -646.982
  H     -466.373     666.851    -646.961
  H     -468.437     665.569    -647.473
  H     -469.663     662.908    -645.495
  H     -470.893     665.718    -645.139
  H     -472.965     664.890    -645.882
  H     -471.875     663.086    -647.823
  H     -464.826     666.555    -643.560
  H     -471.353     665.127    -649.209
  H     -464.689     667.353    -645.126
  H     -473.019     665.102    -648.556
  P     -474.073     662.454    -646.100
  C     -473.496     660.144    -647.187
  O     -473.780     661.538    -647.385
  O     -474.629     663.805    -646.730
  O     -474.970     661.870    -645.109
  H     -475.263     664.222    -646.119
  H     -473.325     659.677    -648.134
  H     -474.328     659.676    -646.704
  H     -472.624     660.041    -646.576

 6  7  8  9  10  11  12  13  14  15  16  26  30  31  32  33  35 0
 6-311+G(2d,p)
 ****
 37  38 0
 6-311+G(2d,p)
 ****
 1  2  3  4  5  17  18  19  20  21  22  23  24  25 0
 3-21G
 ****
 27  28  29  34  36  39  40  41  42  43  44  45  46 0
 3-21G
 ****


