%nproc=1
%NoSave
%Mem=1900MB
#P OB98/GEN NMR

erre ene a

0 1
  C      417.438     303.860    -138.551
  O      416.444     303.156    -137.812
  P      416.550     301.619    -137.381
  C      418.365     301.696    -135.489
  O      416.998     301.560    -135.846
  C      418.893     300.519    -134.650
  O      420.302     300.727    -134.353
  C      418.174     300.452    -133.304
  O      416.913     299.812    -133.203
  C      419.219     299.928    -132.333
  O      419.153     298.510    -132.170
  C      420.544     300.325    -132.993
  N      423.382     301.641    -128.941
  C      422.817     300.424    -129.252
  N      422.983     299.434    -128.346
  N      422.132     300.197    -130.340
  C      421.969     301.293    -131.116
  C      422.464     302.557    -130.907
  C      423.271     302.786    -129.721
  O      423.802     303.844    -129.409
  N      422.070     303.424    -131.896
  C      421.320     302.687    -132.693
  N      421.235     301.380    -132.264
  O      417.278     300.730    -138.334
  O      415.011     301.137    -137.346
  H      419.135     298.105    -133.056
  H      415.008     300.193    -137.609
  H      423.920     301.756    -128.098
  H      420.831     303.040    -133.588
  H      421.235     299.476    -133.036
  H      419.071     300.362    -131.333
  H      423.397     299.575    -127.435
  H      417.985     301.489    -132.993
  H      422.391     298.605    -128.461
  H      418.841     299.585    -135.217
  H      418.461     302.636    -134.935
  H      418.975     301.811    -136.390
  P      415.556     300.468    -132.661
  C      414.372     300.935    -134.881
  O      414.394     300.139    -133.709
  O      415.780     302.042    -132.864
  O      415.233     300.158    -131.232
  H      415.134     302.549    -132.335
  H      413.389     300.840    -135.355
  H      415.134     300.589    -135.581
  H      414.550     301.992    -134.644
  H      417.120     304.870    -138.705
  H      417.583     303.383    -139.498
  H      418.358     303.855    -138.005

 3  4  5  6  7  8  9  10  11  12  23  26  30  31 0
 6-311+G(2d,p)
 ****
 33  35  36  37  38 0
 6-311+G(2d,p)
 ****
 1  2  13  14  15  16  17  18  19  20  21  22  24  25 0
 3-21G
 ****
 27  28  29  32  34  39  40  41  42  43  44  45  46  47  48  49 0
 3-21G
 ****


