%nproc=1
%NoSave
%Mem=1900MB
#P OB98/GEN NMR

erre ene a

0 1
  C     -702.880     685.249    -376.308
  O     -702.561     684.271    -375.311
  P     -701.789     682.931    -375.759
  C     -699.383     682.995    -374.833
  O     -700.231     683.292    -375.933
  C     -699.237     684.215    -373.916
  O     -700.495     684.557    -373.277
  C     -698.255     683.987    -372.771
  O     -696.916     684.020    -373.237
  C     -698.645     685.102    -371.818
  O     -698.016     686.349    -372.203
  C     -700.165     685.196    -372.021
  N     -700.931     684.608    -370.935
  C     -700.786     685.216    -369.674
  O     -700.021     686.171    -369.533
  N     -701.497     684.714    -368.616
  C     -702.276     683.691    -368.784
  N     -702.961     683.230    -367.700
  C     -702.446     683.009    -370.091
  C     -701.725     683.510    -371.109
  O     -702.398     682.180    -376.887
  O     -701.783     682.062    -374.406
  H     -697.072     686.256    -372.014
  H     -701.799     681.122    -374.654
  H     -703.118     682.161    -370.182
  H     -701.799     683.057    -372.090
  H     -700.473     686.243    -372.108
  H     -698.319     684.895    -370.793
  H     -698.467     683.009    -372.301
  H     -698.901     685.062    -374.533
  H     -702.809     683.718    -366.826
  H     -698.401     682.687    -375.210
  H     -703.630     682.475    -367.744
  H     -699.793     682.140    -374.289
  P     -696.216     682.614    -373.599
  C     -694.745     683.224    -375.652
  O     -695.932     682.593    -375.156
  O     -697.419     681.553    -373.414
  O     -695.064     682.257    -372.719
  H     -697.055     680.724    -373.091
  H     -694.548     682.853    -376.663
  H     -693.883     682.998    -375.001
  H     -694.902     684.301    -375.684
  H     -703.388     686.072    -375.850
  H     -703.512     684.808    -377.051
  H     -701.979     685.597    -376.768

 3  4  5  6  7  8  9  10  11  12  13  23  27  28  29  30  32 0
 6-311+G(2d,p)
 ****
 34  35 0
 6-311+G(2d,p)
 ****
 1  2  14  15  16  17  18  19  20  21  22  24  25  26 0
 3-21G
 ****
 31  33  36  37  38  39  40  41  42  43  44  45  46 0
 3-21G
 ****


