%nproc=1
%NoSave
%Mem=1900MB
#P OB98/GEN NMR

erre ene a

0 1
  C     -258.316     -53.280     -61.219
  O     -258.931     -52.671     -60.093
  P     -259.763     -53.615     -59.096
  C     -262.032     -53.386     -60.319
  O     -261.283     -53.099     -59.146
  C     -263.521     -53.154     -60.092
  O     -264.237     -53.427     -61.327
  C     -264.133     -54.037     -58.993
  O     -265.011     -53.238     -58.180
  C     -264.996     -55.020     -59.772
  O     -266.064     -55.530     -58.983
  C     -265.430     -54.142     -60.942
  N     -269.546     -56.461     -62.730
  C     -269.412     -55.612     -61.650
  N     -270.521     -55.394     -60.910
  N     -268.292     -55.024     -61.322
  C     -267.267     -55.308     -62.166
  C     -267.283     -56.126     -63.275
  C     -268.511     -56.814     -63.591
  O     -268.672     -57.651     -64.483
  N     -266.055     -56.148     -63.887
  C     -265.302     -55.354     -63.155
  N     -265.980     -54.852     -62.073
  O     -259.248     -53.150     -57.653
  O     -259.568     -55.080     -59.296
  H     -266.374     -56.352     -59.415
  H     -258.900     -53.920     -57.165
  H     -270.431     -56.898     -62.928
  H     -264.258     -55.130     -63.355
  H     -266.178     -53.405     -60.613
  H     -264.373     -55.857     -60.100
  H     -271.427     -55.778     -61.130
  H     -263.400     -54.544     -58.356
  H     -270.449     -54.756     -60.130
  H     -263.675     -52.088     -59.863
  H     -261.869     -54.432     -60.603
  H     -261.671     -52.744     -61.136
  P     -264.583     -53.079     -56.639
  C     -265.744     -55.111     -55.503
  O     -265.773     -53.727     -55.787
  O     -264.737     -51.508     -56.377
  O     -263.210     -53.579     -56.337
  H     -264.164     -51.226     -55.638
  H     -264.791     -55.573     -55.782
  H     -266.551     -55.604     -56.058
  H     -265.912     -55.261     -54.433
  H     -257.800     -52.536     -61.790
  H     -259.065     -53.741     -61.828
  H     -257.619     -54.021     -60.887

 3  4  5  6  7  8  9  10  11  12  23  26  30  31  33  0
 6-311+G(2d,p)
 ****
 35  36  37  38 0
 6-311+G(2d,p)
 ****
 1  2  13  14  15  16  17  18  19  20  21  22  24  25  27  28  29 0
 3-21G
 ****
 32  34  39  40  41  42  43  44  45  46  47  48  49 0
 3-21G
 ****


