%nproc=1
%NoSave
%Mem=1900MB
#P OB98/GEN NMR

erre ene a

0 1
  C      -87.937     160.669    -641.453
  O      -86.904     161.360    -640.788
  H      -88.508     161.383    -642.057
  H      -88.614     160.207    -640.731
  H      -87.523     159.902    -642.115
  P      -85.824     160.524    -639.956
  C      -84.272     162.566    -639.594
  O      -85.073     161.556    -638.975
  C      -84.215     163.802    -638.697
  O      -85.551     164.343    -638.517
  C      -83.698     163.519    -637.283
  O      -82.296     163.347    -637.281
  C      -84.200     164.754    -636.551
  O      -83.322     165.868    -636.754
  C      -85.562     165.003    -637.230
  N      -86.673     164.534    -636.415
  C      -87.218     165.446    -635.502
  O      -86.801     166.608    -635.396
  N      -88.216     164.965    -634.685
  C      -88.608     163.664    -634.599
  O      -89.311     163.245    -633.678
  C      -88.048     162.752    -635.598
  C      -87.121     163.211    -636.450
  O      -84.907     159.661    -640.777
  O      -86.700     159.646    -638.951
  H      -86.765     158.735    -639.288
  H      -83.778     166.639    -636.355
  H      -88.573     165.629    -634.005
  H      -88.393     161.728    -635.611
  H      -86.668     162.553    -637.189
  H      -85.705     166.073    -637.427
  H      -84.272     164.575    -635.480
  H      -84.194     162.634    -636.875
  H      -83.599     164.568    -639.204
  H      -84.723     162.832    -640.559
  H      -83.264     162.169    -639.772
  P      -81.543     162.897    -635.928
  C      -79.951     161.486    -637.374
  O      -80.054     162.427    -636.312
  O      -82.308     161.949    -635.061
  O      -81.293     164.289    -635.162
  H      -81.597     164.196    -634.229
  H      -78.921     161.248    -637.541
  H      -80.369     161.907    -638.265
  H      -80.486     160.596    -637.115

 6  7  8  9  10  11  12  13  14  15  16  27  31  32  33  34  35 0
 6-311+G(2d,p)
 ****
 36  37 0
 6-311+G(2d,p)
 ****
 1  2  3  4  5  17  18  19  20  21  22  23  24  25 0
 3-21G
 ****
 26  28  29  30  38  39  40  41  42  43  44  45 0
 3-21G
 ****


