%nproc=1
%NoSave
%Mem=1900MB
#P OB98/GEN NMR

erre ene a

0 1
  C     -190.913    -126.537    -220.084
  O     -191.823    -127.612    -219.928
  P     -192.832    -127.581    -218.683
  C     -194.841    -128.446    -220.148
  O     -194.007    -128.632    -219.019
  C     -195.913    -129.532    -220.198
  O     -195.265    -130.836    -220.310
  C     -196.828    -129.591    -218.964
  O     -198.137    -129.962    -219.418
  C     -196.208    -130.696    -218.131
  O     -197.122    -131.265    -217.212
  C     -195.756    -131.664    -219.239
  N     -194.720    -132.604    -218.803
  C     -195.125    -133.714    -218.069
  O     -196.286    -133.940    -217.749
  N     -194.117    -134.565    -217.683
  C     -192.780    -134.382    -217.891
  O     -191.920    -135.165    -217.505
  C     -192.412    -133.166    -218.633
  C     -193.385    -132.356    -219.058
  O     -193.523    -126.155    -218.874
  O     -192.172    -127.791    -217.360
  H     -193.649    -125.915    -219.805
  H     -196.686    -132.027    -216.781
  H     -194.390    -135.400    -217.181
  H     -191.361    -132.974    -218.809
  H     -193.135    -131.450    -219.604
  H     -196.615    -132.220    -219.629
  H     -195.350    -130.306    -217.572
  H     -196.874    -128.627    -218.439
  H     -196.509    -129.391    -221.109
  H     -194.232    -128.494    -221.060
  H     -195.292    -127.451    -220.102
  P     -199.404    -129.531    -218.520
  C     -201.115    -130.486    -220.254
  O     -200.623    -130.482    -218.938
  O     -199.784    -128.134    -219.220
  O     -199.123    -129.391    -217.063
  H     -199.829    -128.196    -220.190
  H     -201.686    -131.406    -220.420
  H     -200.302    -130.449    -220.993
  H     -201.777    -129.633    -220.411
  H     -190.312    -126.702    -220.954
  H     -190.283    -126.475    -219.222
  H     -191.457    -125.622    -220.194

 3  4  5  6  7  8  9  10  11  12  13  24  28  29  30  31  32 0
 6-311+G(2d,p)
 ****
 33  34 0
 6-311+G(2d,p)
 ****
 1  2  14  15  16  17  18  19  20  21  22  23  25  26  27 0
 3-21G
 ****
 35  36  37  38  39  40  41  42  43  44  45 0
 3-21G
 ****


