%nproc=1
%NoSave
%Mem=1900MB
#P OB98/GEN NMR

erre ene a

0 1
  C     -391.722     129.301    -261.705
  O     -392.207     129.025    -263.000
  H     -390.736     128.847    -261.592
  H     -392.394     128.871    -260.957
  H     -391.633     130.379    -261.547
  P     -393.577     129.734    -263.445
  C     -394.998     128.200    -264.989
  O     -393.945     129.152    -264.898
  C     -395.299     127.880    -266.457
  O     -395.974     129.018    -267.053
  C     -394.052     127.582    -267.290
  O     -394.357     126.536    -268.213
  C     -393.806     128.874    -268.052
  O     -393.086     128.674    -269.268
  C     -395.241     129.399    -268.235
  N     -395.258     130.845    -268.445
  C     -395.145     131.284    -269.769
  O     -395.022     130.472    -270.685
  N     -395.105     132.632    -270.009
  C     -395.101     133.470    -269.018
  N     -395.030     134.794    -269.324
  C     -395.155     133.041    -267.603
  C     -395.236     131.729    -267.392
  O     -393.133     131.239    -263.757
  O     -394.688     129.661    -262.449
  H     -392.150     128.475    -269.041
  H     -393.855     131.868    -263.558
  H     -395.117     133.773    -266.814
  H     -395.278     131.320    -266.391
  H     -395.721     128.909    -269.090
  H     -393.231     129.564    -267.425
  H     -393.187     127.293    -266.685
  H     -396.003     127.036    -266.487
  H     -394.984     135.044    -270.303
  H     -395.895     128.624    -264.525
  H     -394.973     135.528    -268.629
  H     -394.710     127.293    -264.447
  P     -393.848     125.061    -267.822
  C     -393.080     123.930    -270.035
  O     -394.120     124.099    -269.081
  O     -394.912     124.582    -266.731
  O     -392.452     125.033    -267.291
  H     -394.500     124.563    -265.850
  H     -393.409     123.267    -270.808
  H     -392.218     123.517    -269.554
  H     -392.830     124.879    -270.462

 6  7  8  9  10  11  12  13  14  15  16  26  30  31  32  33  35 0
 6-311+G(2d,p)
 ****
 37  38 0
 6-311+G(2d,p)
 ****
 1  2  3  4  5  17  18  19  20  21  22  23  24  25 0
 3-21G
 ****
 27  28  29  34  36  39  40  41  42  43  44  45  46 0
 3-21G
 ****


