%nproc=1
%NoSave
%Mem=1900MB
#P OB98/GEN NMR

erre ene a

0 1
  C      -90.235     621.651    -194.350
  O      -89.253     620.727    -193.879
  P      -88.588     621.025    -192.454
  C      -86.046     621.601    -192.556
  O      -87.388     622.055    -192.740
  C      -85.448     621.115    -193.877
  O      -85.872     621.989    -194.942
  C      -83.930     621.122    -193.910
  O      -83.413     620.006    -193.223
  C      -83.673     621.095    -195.426
  O      -83.667     619.743    -195.911
  C      -84.875     621.888    -195.996
  N      -84.487     623.198    -196.486
  C      -84.016     623.231    -197.805
  O      -83.916     622.189    -198.459
  N      -83.607     624.441    -198.331
  C      -83.675     625.519    -197.595
  N      -83.273     626.684    -198.173
  C      -84.159     625.512    -196.198
  C      -84.532     624.327    -195.702
  O      -87.836     619.654    -192.114
  O      -89.549     621.438    -191.376
  H      -82.954     619.284    -195.405
  H      -87.736     619.532    -191.151
  H      -84.195     626.431    -195.635
  H      -84.895     624.242    -194.690
  H      -85.337     621.330    -196.820
  H      -82.701     621.521    -195.681
  H      -83.538     622.050    -193.491
  H      -85.838     620.111    -194.095
  H      -82.953     626.665    -199.135
  H      -86.041     620.760    -191.844
  H      -83.316     627.577    -197.693
  H      -85.451     622.415    -192.137
  P      -81.854     620.005    -192.851
  C      -80.640     618.215    -194.241
  O      -81.108     619.562    -194.194
  O      -81.722     618.706    -191.935
  O      -81.325     621.232    -192.173
  H      -80.814     618.660    -191.563
  H      -80.316     617.994    -195.258
  H      -81.456     617.522    -193.975
  H      -79.800     618.103    -193.556
  H      -90.594     621.333    -195.307
  H      -89.797     622.623    -194.438
  H      -91.050     621.689    -193.658

 3  4  5  6  7  8  9  10  11  12  13  21  23  27  28  29  30  32 0
 6-311+G(2d,p)
 ****
 34  35 0
 6-311+G(2d,p)
 ****
 1  2  14  15  16  17  18  19  20  22  24  25  26 0
 3-21G
 ****
 31  33  36  37  38  39  40  41  42  43  44  45  46 0
 3-21G
 ****


