%nproc=1
%NoSave
%Mem=1900MB
#P OB98/GEN NMR

erre ene a

0 1
  C      -89.284     288.156     -77.053
  O      -88.973     289.396     -76.454
  P      -88.365     289.486     -74.971
  C      -89.329     289.895     -72.624
  O      -89.625     289.681     -73.995
  C      -90.374     290.796     -71.963
  O      -90.254     292.147     -72.490
  C      -91.828     290.347     -72.168
  O      -92.532     290.706     -70.975
  C      -92.274     291.212     -73.331
  O      -93.690     291.302     -73.435
  C      -91.546     292.523     -73.013
  N      -91.438     293.387     -74.183
  C      -92.628     293.921     -74.682
  O      -93.710     293.596     -74.188
  N      -92.574     294.765     -75.762
  C      -91.439     294.971     -76.355
  N      -91.444     295.821     -77.418
  C      -90.180     294.328     -75.937
  C      -90.248     293.567     -74.846
  O      -87.270     290.481     -74.793
  O      -87.918     287.981     -74.658
  H      -93.908     291.927     -74.161
  H      -87.067     287.772     -75.121
  H      -89.270     294.487     -76.495
  H      -89.377     293.056     -74.462
  H      -92.072     293.075     -72.222
  H      -91.899     290.787     -74.271
  H      -91.932     289.278     -72.373
  H      -90.146     290.846     -70.891
  H      -92.328     296.253     -77.660
  H      -88.354     290.385     -72.560
  H      -90.605     296.114     -77.895
  H      -89.257     288.936     -72.103
  P      -94.065     290.295     -70.758
  C      -96.276     291.570     -70.945
  O      -94.957     291.437     -71.439
  O      -94.436     289.964     -69.350
  O      -94.281     289.038     -71.730
  H      -95.098     288.570     -71.478
  H      -96.682     292.532     -71.268
  H      -96.292     291.527     -69.852
  H      -96.901     290.768     -71.347
  H      -89.674     288.322     -78.035
  H      -90.015     287.647     -76.460
  H      -88.398     287.559     -77.118

 3  4  5  6  7  8  9  10  11  12  13  23  27  28  29  30  32 0
 6-311+G(2d,p)
 ****
 34  35 0
 6-311+G(2d,p)
 ****
 1  2  14  15  16  17  18  19  20  21  22  24  25  26 0
 3-21G
 ****
 31  33  36  37  38  39  40  41  42  43  44  45  46 0
 3-21G
 ****


