%nproc=1
%NoSave
%Mem=1900MB
#P OB98/GEN NMR

erre ene a

0 1
  C     -483.489    -584.614    -311.947
  O     -482.582    -583.513    -311.867
  P     -481.416    -583.549    -310.773
  C     -479.783    -582.118    -312.167
  O     -480.505    -582.232    -310.949
  C     -480.667    -581.534    -313.275
  O     -481.132    -580.206    -312.903
  C     -479.919    -581.396    -314.612
  O     -480.822    -581.599    -315.710
  C     -479.506    -579.935    -314.614
  O     -479.227    -579.475    -315.932
  C     -480.720    -579.295    -313.944
  N     -480.368    -574.284    -314.949
  C     -480.761    -575.327    -315.705
  N     -480.852    -576.629    -315.368
  C     -480.500    -576.811    -314.086
  C     -480.083    -575.841    -313.181
  C     -480.015    -574.521    -313.657
  N     -479.585    -573.466    -312.888
  N     -479.800    -576.404    -311.955
  C     -479.988    -577.697    -312.130
  N     -480.444    -577.988    -313.390
  O     -480.657    -584.828    -310.673
  O     -482.201    -583.236    -309.409
  H     -478.804    -578.597    -315.854
  H     -481.853    -583.823    -308.697
  H     -481.036    -575.080    -316.729
  H     -479.798    -578.462    -311.389
  H     -481.560    -579.183    -314.643
  H     -478.603    -579.808    -314.003
  H     -479.069    -582.068    -314.729
  H     -481.553    -582.164    -313.390
  H     -479.413    -583.102    -312.465
  H     -479.463    -572.575    -313.348
  H     -479.182    -573.654    -311.982
  H     -478.892    -581.504    -312.000
  P     -480.263    -582.508    -316.915
  C     -482.473    -583.644    -317.736
  O     -481.486    -582.662    -317.945
  O     -479.621    -583.772    -316.466
  O     -479.258    -581.500    -317.654
  H     -479.628    -580.626    -317.856
  H     -483.277    -583.501    -318.459
  H     -482.897    -583.563    -316.732
  H     -482.052    -584.642    -317.873
  H     -484.202    -584.433    -312.724
  H     -484.000    -584.724    -311.013
  H     -482.945    -585.509    -312.163

 3  4  5  6  7  8  9  10  11  12  22  25  29  30  31  32 0
 6-311+G(2d,p)
 ****
 33  36  37 0
 6-311+G(2d,p)
 ****
 1  2  13  14  15  16  17  18  19  20  21  23  24  26 0
 3-21G
 ****
 27  28  34  35  38  39  40  41  42  43  44  45  46  47  48 0
 3-21G
 ****


