%nproc=1
%NoSave
%Mem=1900MB
#P OB98/GEN NMR

erre ene a

0 1
  C        3.961     220.354     -63.009
  O        4.619     221.372     -62.281
  H        3.559     219.623     -62.305
  H        4.670     219.854     -63.676
  H        3.137     220.777     -63.592
  P        5.269     222.559     -63.142
  C        7.683     221.581     -63.266
  O        6.484     221.901     -63.956
  C        8.643     220.823     -64.189
  O        8.021     219.562     -64.576
  C        8.979     221.570     -65.490
  O       10.293     221.163     -65.908
  C        7.941     221.004     -66.446
  O        8.264     221.308     -67.783
  C        7.980     219.538     -66.021
  N        5.917     217.060     -69.987
  C        7.111     217.669     -69.831
  N        7.596     218.298     -68.742
  C        6.715     218.240     -67.728
  C        5.462     217.644     -67.735
  C        5.064     217.035     -68.936
  N        3.846     216.417     -69.100
  N        4.848     217.793     -66.505
  C        5.712     218.463     -65.772
  N        6.850     218.763     -66.470
  O        5.994     223.461     -62.037
  O        4.313     223.349     -63.971
  H        7.546     221.025     -68.387
  H        5.409     224.195     -61.772
  H        7.764     217.654     -70.701
  H        5.564     218.765     -64.742
  H        8.889     219.036     -66.371
  H        6.956     221.439     -66.254
  H        8.950     222.657     -65.386
  H        9.552     220.569     -63.628
  H        7.430     220.959     -62.401
  H        8.161     222.501     -62.919
  H        3.631     216.017     -69.998
  H        3.194     216.405     -68.330
  P       11.535     222.150     -65.652
  C       11.323     223.974     -67.516
  O       11.135     223.620     -66.155
  O       12.568     221.684     -66.788
  O       12.163     222.068     -64.300
  H       13.479     221.866     -66.492
  H       11.004     224.984     -67.669
  H       10.748     223.320     -68.137
  H       12.359     223.885     -67.768

 6  7  8  9  10  11  12  13  14  15  25  28  32  33  34  35 0
 6-311+G(2d,p)
 ****
 36  37  40 0
 6-311+G(2d,p)
 ****
 1  2  3  4  5  16  17  18  19  20  21  22  23  24 0
 3-21G
 ****
 26  27  29  30  31  38  39 41  42  43  44  45  46  47  48 0
 3-21G
 ****


