%nproc=1
%NoSave
%Mem=1900MB
#P OB98/GEN NMR

erre ene a

0 1
  C      226.101    -458.014    -343.109
  O      225.534    -459.273    -342.747
  P      224.424    -459.323    -341.595
  C      222.351    -458.789    -343.020
  O      223.232    -458.330    -341.998
  C      220.895    -458.451    -342.673
  O      220.690    -457.021    -342.589
  C      219.899    -458.940    -343.710
  O      219.734    -460.342    -343.608
  C      218.682    -458.105    -343.370
  O      217.944    -458.678    -342.283
  C      219.311    -456.758    -342.938
  N      219.201    -455.714    -343.950
  C      218.058    -454.905    -343.872
  O      217.207    -455.112    -343.007
  N      217.917    -453.889    -344.781
  C      218.821    -453.698    -345.687
  N      218.625    -452.678    -346.563
  C      220.024    -454.541    -345.806
  C      220.149    -455.529    -344.921
  O      224.938    -459.172    -340.199
  O      223.763    -460.769    -341.799
  H      218.590    -458.827    -341.555
  H      223.447    -461.102    -340.934
  H      220.746    -454.342    -346.591
  H      221.003    -456.186    -344.945
  H      218.833    -456.387    -342.026
  H      217.982    -458.028    -344.216
  H      220.254    -458.684    -344.722
  H      220.661    -458.890    -341.693
  H      217.777    -452.125    -346.455
  H      222.460    -459.871    -343.135
  H      219.297    -452.418    -347.280
  H      222.648    -458.336    -343.976
  P      219.251    -461.140    -344.916
  C      221.112    -460.491    -346.609
  O      219.774    -460.314    -346.196
  O      217.667    -460.872    -344.936
  O      219.550    -462.605    -344.939
  H      217.207    -461.652    -345.302
  H      221.211    -460.141    -347.642
  H      221.393    -461.552    -346.580
  H      221.783    -459.925    -345.971
  H      226.820    -458.158    -343.888
  H      226.580    -457.580    -342.256
  H      225.327    -457.360    -343.454

 3  4  5  6  7  8  9  10  11  12  13  23  27  28  29  30  32 0
 6-311+G(2d,p)
 ****
 34  35 0
 6-311+G(2d,p)
 ****
 1  2  14  15  16  17  18  19  20  21  22  24  25  26 0
 3-21G
 ****
 31  33  36  37  38  39  40  41  42  43  44  45  46 0
 3-21G
 ****


