%nproc=1
%NoSave
%Mem=1900MB
#P OB98/GEN NMR

erre ene a

0 1
  C       -0.498     453.251    -140.246
  O       -1.198     454.023    -141.202
  H       -0.583     453.739    -139.272
  H        0.559     453.184    -140.518
  H       -0.930     452.249    -140.178
  P       -1.206     453.460    -142.703
  C       -1.936     455.843    -143.468
  O       -2.158     454.443    -143.539
  C       -3.271     456.598    -143.486
  O       -4.117     456.024    -144.526
  C       -4.058     456.500    -142.169
  O       -4.854     457.690    -142.041
  C       -4.963     455.309    -142.439
  O       -6.000     455.237    -141.488
  C       -5.344     455.605    -143.886
  N       -9.276     452.346    -144.105
  C       -9.044     453.423    -143.325
  N       -7.980     454.250    -143.333
  C       -7.102     453.887    -144.284
  C       -7.206     452.820    -145.160
  C       -8.356     452.020    -145.043
  N       -8.591     450.917    -145.830
  N       -6.103     452.761    -145.991
  C       -5.348     453.778    -145.623
  N       -5.909     454.479    -144.590
  O       -2.057     452.111    -142.588
  O        0.138     453.225    -143.308
  H       -5.640     455.252    -140.576
  H       -1.457     451.349    -142.480
  H       -9.817     453.650    -142.593
  H       -4.394     454.043    -146.059
  H       -6.057     456.434    -143.959
  H       -4.404     454.371    -142.366
  H       -3.420     456.393    -141.288
  H       -3.089     457.642    -143.767
  H       -1.329     456.142    -144.330
  H       -1.396     456.081    -142.548
  H       -9.436     450.389    -145.672
  H       -7.907     450.653    -146.522
  P       -5.080     458.327    -140.582
  C       -7.580     459.031    -140.897
  O       -6.236     459.435    -140.679
  O       -3.767     459.235    -140.409
  O       -5.199     457.351    -139.460
  H       -3.553     459.318    -139.461
  H       -8.211     459.895    -140.934
  H       -7.895     458.393    -140.098
  H       -7.647     458.501    -141.824

 6  7  8  9  10  11  12  13  14  15  25  28  32  33  34  35 0
 6-311+G(2d,p)
 ****
 36  37  40 0
 6-311+G(2d,p)
 ****
 1  2  3  4  5  16  17  18  19  20  21  22  23  24 0
 3-21G
 ****
 26  27  29  30  31  38  39 41  42  43  44  45  46  47  48 0
 3-21G
 ****


