%nproc=1
%NoSave
%Mem=1900MB
#P OB98/GEN NMR

erre ene a

0 1
  C      725.212    -303.424    -771.612
  O      724.597    -304.553    -772.199
  H      724.475    -302.618    -771.545
  H      726.052    -303.079    -772.222
  H      725.558    -303.664    -770.605
  P      725.501    -305.824    -772.561
  C      723.955    -307.573    -771.472
  O      725.217    -306.921    -771.421
  C      723.911    -308.745    -770.490
  O      724.880    -309.744    -770.918
  C      724.243    -308.349    -769.044
  O      723.419    -309.118    -768.166
  C      725.693    -308.764    -768.914
  O      726.052    -308.987    -767.563
  C      725.768    -310.002    -769.816
  N      727.137    -310.257    -770.259
  C      728.016    -310.762    -769.299
  O      727.631    -310.985    -768.150
  N      729.335    -310.940    -769.639
  C      729.744    -310.592    -770.817
  N      731.073    -310.763    -771.072
  C      728.855    -310.033    -771.853
  C      727.574    -309.896    -771.512
  O      726.944    -305.552    -772.821
  O      724.780    -306.442    -773.849
  H      726.988    -309.276    -767.515
  H      725.160    -306.063    -774.661
  H      729.255    -309.752    -772.818
  H      726.853    -309.479    -772.202
  H      725.396    -310.892    -769.285
  H      726.344    -307.973    -769.307
  H      724.106    -307.282    -768.851
  H      722.924    -309.215    -770.551
  H      731.648    -311.130    -770.327
  H      723.805    -307.941    -772.491
  H      731.519    -310.492    -771.935
  H      723.159    -306.857    -771.236
  P      722.757    -308.445    -766.868
  C      720.342    -308.474    -767.717
  O      721.428    -307.652    -767.307
  O      723.704    -307.654    -766.025
  O      722.182    -309.694    -766.044
  H      722.204    -309.482    -765.088
  H      719.510    -307.857    -767.988
  H      720.060    -309.120    -766.912
  H      720.639    -309.063    -768.560

 6  7  8  9  10  11  12  13  14  15  16  26  30  31  32  33  35 0
 6-311+G(2d,p)
 ****
 37  38 0
 6-311+G(2d,p)
 ****
 1  2  3  4  5  17  18  19  20  21  22  23  24  25 0
 3-21G
 ****
 27  28  29  34  36  39  40  41  42  43  44  45  46 0
 3-21G
 ****


