%nproc=1
%NoSave
%Mem=1900MB
#P OB98/GEN NMR

erre ene a

0 1
  C      -18.416    -113.522     -66.815
  O      -19.183    -113.225     -65.665
  H      -18.944    -114.274     -67.408
  H      -17.441    -113.923     -66.522
  H      -18.280    -112.622     -67.421
  P      -18.542    -112.179     -64.631
  C      -16.568    -113.712     -63.947
  O      -17.757    -113.050     -63.536
  C      -15.752    -114.147     -62.730
  O      -14.585    -114.893     -63.139
  C      -15.254    -112.994     -61.861
  O      -16.254    -112.573     -60.952
  C      -14.064    -113.642     -61.169
  O      -14.494    -114.464     -60.059
  C      -13.473    -114.510     -62.287
  N       -8.521    -114.366     -63.278
  C       -9.220    -115.102     -62.346
  N       -8.494    -115.899     -61.530
  N      -10.522    -115.055     -62.208
  C      -11.113    -114.172     -63.048
  C      -10.529    -113.386     -64.015
  C       -9.096    -113.490     -64.194
  O       -8.429    -112.930     -65.056
  N      -11.466    -112.633     -64.676
  C      -12.609    -112.941     -64.088
  N      -12.444    -113.864     -63.088
  O      -19.812    -111.629     -63.817
  O      -17.773    -111.059     -65.244
  H      -14.973    -115.239     -60.405
  H      -19.682    -110.679     -63.640
  H       -7.523    -114.467     -63.360
  H      -13.574    -112.533     -64.354
  H      -13.028    -115.434     -61.900
  H      -13.386    -112.895     -60.752
  H       -7.501    -115.763     -61.390
  H      -14.902    -112.158     -62.480
  H       -9.002    -116.380     -60.797
  H      -16.379    -114.828     -62.140
  H      -15.971    -113.024     -64.557
  H      -16.831    -114.589     -64.547
  P      -16.320    -111.021     -60.560
  C      -15.463    -111.474     -58.150
  O      -16.489    -110.921     -58.967
  O      -17.753    -110.570     -61.118
  O      -15.232    -110.185     -61.143
  H      -17.642    -110.040     -61.929
  H      -15.713    -111.333     -57.119
  H      -14.535    -110.985     -58.362
  H      -15.369    -112.520     -58.354

 6  7  8  9  10  11  12  13  14  15  26  29  33  34 0
 6-311+G(2d,p)
 ****
 36  38  39  40  41 0
 6-311+G(2d,p)
 ****
 1  2  3  4  5  16  17  18  19  20  21  22  23  24  25 0
 3-21G
 ****
 27  28  30  31  32  35  37  42  43  44  45  46  47 0
 3-21G
 ****
 48  49 0
 3-21G
 ****


