%nproc=1
%NoSave
%Mem=1900MB
#P OB98/GEN NMR

erre ene a

0 1
  C      278.394     147.901    -338.329
  O      277.120     148.156    -338.882
  H      278.535     148.544    -337.453
  H      279.175     148.131    -339.060
  H      278.472     146.857    -338.016
  P      276.698     147.282    -340.158
  C      276.702     149.430    -341.625
  O      277.187     148.105    -341.449
  C      275.787     149.487    -342.844
  O      275.188     150.800    -342.938
  C      276.506     149.270    -344.175
  O      276.753     147.897    -344.423
  C      275.516     149.894    -345.150
  O      274.470     148.979    -345.501
  C      274.938     151.063    -344.338
  N      274.391     155.121    -347.375
  C      273.611     154.038    -347.166
  N      273.821     153.003    -346.321
  C      274.970     153.175    -345.643
  C      275.870     154.224    -345.755
  C      275.541     155.237    -346.671
  N      276.351     156.325    -346.908
  N      276.957     154.020    -344.926
  C      276.713     152.876    -344.320
  N      275.523     152.335    -344.717
  O      275.104     147.437    -340.189
  O      277.121     145.851    -340.117
  H      274.873     148.305    -346.086
  H      274.692     146.683    -339.727
  H      272.701     153.990    -347.758
  H      277.367     152.396    -343.600
  H      273.853     151.155    -344.459
  H      276.007     150.197    -346.078
  H      277.440     149.845    -344.203
  H      274.981     148.755    -342.714
  H      277.551     150.109    -341.777
  H      276.159     149.732    -340.724
  H      276.063     157.002    -347.596
  H      277.260     156.366    -346.467
  P      277.826     147.506    -345.550
  C      276.159     146.568    -347.315
  O      277.087     147.586    -346.973
  O      278.038     145.936    -345.320
  O      279.111     148.261    -345.477
  H      278.863     145.774    -344.821
  H      275.757     146.764    -348.287
  H      275.366     146.553    -346.597
  H      276.655     145.620    -347.319

 6  7  8  9  10  11  12  13  14  15  25  28  32  33  34  35 0
 6-311+G(2d,p)
 ****
 36  37  40 0
 6-311+G(2d,p)
 ****
 1  2  3  4  5  16  17  18  19  20  21  22  23  24 0
 3-21G
 ****
 26  27  29  30  31  38  39 41  42  43  44  45  46  47  48 0
 3-21G
 ****


