%nproc=1
%NoSave
%Mem=1900MB
#P OB98/GEN NMR

erre ene a

0 1
  C     -264.203     521.243    -144.037
  O     -264.618     521.704    -145.311
  H     -263.120     521.353    -143.932
  H     -264.696     521.846    -143.270
  H     -264.488     520.196    -143.903
  P     -264.024     520.926    -146.582
  C     -261.639     520.386    -147.454
  O     -262.428     520.949    -146.417
  C     -260.483     521.320    -147.805
  O     -260.991     522.544    -148.371
  C     -259.625     521.738    -146.617
  O     -258.685     520.737    -146.261
  C     -258.930     522.969    -147.193
  O     -257.843     522.563    -148.044
  C     -260.049     523.600    -148.034
  N     -259.969     528.551    -146.716
  C     -259.134     527.800    -147.478
  N     -259.237     526.496    -147.805
  C     -260.342     525.960    -147.260
  C     -261.297     526.594    -146.482
  C     -261.072     527.956    -146.202
  N     -261.897     528.685    -145.363
  N     -262.287     525.702    -146.100
  C     -261.924     524.552    -146.626
  N     -260.764     524.659    -147.340
  O     -264.300     521.950    -147.784
  O     -264.626     519.585    -146.847
  H     -257.270     521.982    -147.508
  H     -265.121     521.689    -148.244
  H     -258.275     528.326    -147.879
  H     -262.469     523.626    -146.509
  H     -259.674     524.016    -148.975
  H     -258.514     523.628    -146.420
  H     -260.243     522.038    -145.762
  H     -259.873     520.823    -148.574
  H     -262.262     520.233    -148.343
  H     -261.414     529.443    -144.881
  H     -262.538     528.130    -144.812
  H     -261.257     519.416    -147.119
  P     -258.683     520.211    -144.747
  C     -257.182     520.570    -142.670
  O     -257.415     520.896    -144.033
  O     -258.249     518.679    -144.896
  O     -259.982     520.342    -144.027
  H     -258.923     518.103    -144.481
  H     -256.314     521.090    -142.322
  H     -257.027     519.515    -142.577
  H     -258.030     520.859    -142.084

 6  7  8  9  10  11  12  13  14  15  25  28  32  33  34  35 0
 6-311+G(2d,p)
 ****
 36  39  40 0
 6-311+G(2d,p)
 ****
 1  2  3  4  5  16  17  18  19  20  21  22  23  24 0
 3-21G
 ****
 26  27  29  30  31  37  38  41  42  43  44  45  46  47  48 0
 3-21G
 ****


