%nproc=1
%NoSave
%Mem=1900MB
#P OB98/GEN NMR

erre ene a

0 1
  C      664.215     -42.258    -897.300
  O      664.892     -43.509    -897.130
  P      666.340     -43.474    -896.450
  C      668.590     -42.315    -897.080
  O      667.320     -42.804    -897.520
  C      669.178     -41.351    -898.100
  O      668.362     -40.160    -898.170
  C      670.582     -40.852    -897.760
  O      671.583     -41.786    -898.140
  C      670.662     -39.615    -898.600
  O      670.942     -39.952    -899.970
  C      669.245     -39.050    -898.470
  N      669.999     -34.116    -897.370
  C      670.298     -34.835    -898.470
  N      670.070     -36.137    -898.680
  C      669.507     -36.724    -897.600
  C      669.182     -36.107    -896.410
  C      669.445     -34.733    -896.300
  N      669.112     -33.976    -895.190
  N      668.627     -37.020    -895.520
  C      668.606     -38.163    -896.200
  N      669.119     -38.029    -897.440
  O      666.777     -45.024    -896.470
  O      666.375     -42.891    -895.070
  H      671.869     -40.260    -900.000
  H      667.452     -45.191    -895.770
  H      670.755     -34.297    -899.280
  H      668.226     -39.095    -895.790
  H      668.889     -38.602    -899.420
  H      671.454     -38.921    -898.270
  H      670.662     -40.587    -896.700
  H      669.169     -41.827    -899.090
  H      669.256     -43.180    -896.970
  H      669.147     -32.975    -895.270
  H      668.505     -34.405    -894.500
  H      668.457     -41.840    -896.100
  P      673.107     -41.386    -897.840
  C      674.409     -39.276    -898.620
  O      673.490     -40.309    -898.960
  O      673.928     -42.705    -898.260
  O      673.363     -40.993    -896.420
  H      674.760     -42.741    -897.780
  H      674.784     -38.822    -899.560
  H      675.235     -39.653    -898.040
  H      673.890     -38.495    -898.060
  H      663.265     -42.426    -897.763
  H      664.805     -41.615    -897.919
  H      664.070     -41.798    -896.345

 3  4  5  6  7  8  9  10  11  12  22  25  29  30  31  32 0
 6-311+G(2d,p)
 ****
 33  36  37 0
 6-311+G(2d,p)
 ****
 1  2  13  14  15  16  17  18  19  20  21  23  24  26 0
 3-21G
 ****
 27  28  34  35  38  39  40  41  42  43  44  45  46  47  48 0
 3-21G
 ****


