%nproc=1
%NoSave
%Mem=1900MB
#P OB98/GEN NMR

erre ene a

0 1
  C     -985.344     806.579     298.633
  O     -986.357     805.588     298.704
  H     -985.486     807.162     297.713
  H     -984.354     806.108     298.598
  H     -985.409     807.254     299.491
  P     -986.279     804.590     299.957
  C     -985.559     802.105     300.207
  O     -985.430     803.314     299.471
  C     -984.540     801.085     299.732
  O     -984.903     800.532     298.447
  C     -983.117     801.625     299.593
  O     -982.435     801.625     300.836
  C     -982.518     800.634     298.594
  O     -982.115     799.419     299.255
  C     -983.700     800.380     297.647
  N     -983.418     800.535     292.600
  C     -983.236     799.480     293.470
  N     -982.902     798.280     292.928
  N     -983.358     799.574     294.774
  C     -983.638     800.831     295.184
  C     -983.844     801.968     294.436
  C     -983.755     801.827     292.995
  O     -983.981     802.705     292.164
  N     -984.123     803.061     295.210
  C     -984.052     802.583     296.446
  N     -983.760     801.243     296.481
  O     -987.771     804.017     300.068
  O     -985.839     805.202     301.245
  H     -981.414     799.616     299.899
  H     -988.000     803.913     301.014
  H     -983.339     800.389     291.612
  H     -984.229     803.174     297.346
  H     -983.701     799.354     297.261
  H     -981.624     801.039     298.127
  H     -982.517     798.219     291.992
  H     -983.128     802.624     299.140
  H     -982.689     797.537     293.575
  H     -984.549     800.245     300.452
  H     -986.563     801.712     300.054
  H     -985.427     802.316     301.264
  P     -980.988     802.313     300.894
  C     -978.525     801.530     300.979
  O     -979.884     801.146     300.951
  O     -980.964     802.923     302.392
  O     -980.764     803.387     299.874
  H     -981.071     803.900     302.348
  H     -977.908     800.656     301.016
  H     -978.342     802.132     301.844
  H     -978.295     802.092     300.098

 6  7  8  9  10  11  12  13  14  15  26  29  33  34 0
 6-311+G(2d,p)
 ****
 36  38  39  40  41 0
 6-311+G(2d,p)
 ****
 1  2  3  4  5  16  17  18  19  20  21  22  23  24  25 0
 3-21G
 ****
 27  28  30  31  32  35  37  42  43  44  45  46  47 0
 3-21G
 ****
 48  49 0
 3-21G
 ****


