%nproc=1
%NoSave
%Mem=1900MB
#P OB98/GEN NMR

erre ene a

0 1
  C     1906.516     -82.313     930.206
  O     1906.231     -81.913     931.561
  P     1904.861     -81.092     931.815
  C     1903.960     -82.732     933.605
  O     1903.724     -82.119     932.336
  C     1902.653     -83.300     934.201
  O     1901.616     -82.269     934.200
  C     1902.130     -84.491     933.361
  O     1901.438     -85.425     934.221
  C     1901.050     -83.811     932.494
  O     1900.106     -84.773     931.997
  C     1900.478     -82.780     933.466
  N     1895.986     -80.390     932.881
  C     1896.373     -81.372     933.682
  N     1897.588     -81.946     933.812
  C     1898.469     -81.386     932.990
  C     1898.234     -80.342     932.090
  C     1896.927     -79.831     932.047
  N     1896.540     -78.822     931.188
  N     1899.380     -80.021     931.386
  C     1900.284     -80.885     931.824
  N     1899.774     -81.713     932.815
  O     1904.414     -80.201     930.726
  O     1905.192     -80.269     933.156
  H     1899.747     -85.252     932.745
  H     1904.847     -79.356     933.059
  H     1895.590     -81.791     934.338
  H     1901.295     -80.946     931.448
  H     1899.804     -83.250     934.203
  H     1901.536     -83.328     931.648
  H     1902.868     -85.013     932.770
  H     1902.830     -83.601     935.232
  H     1904.371     -82.003     934.297
  H     1895.569     -78.601     931.142
  H     1897.154     -78.514     930.466
  H     1904.737     -83.513     933.490
  P     1902.388     -86.534     934.897
  C     1902.227     -85.301     937.212
  O     1903.049     -85.840     936.151
  O     1903.341     -87.212     933.929
  O     1901.301     -87.544     935.525
  H     1900.626     -87.128     936.066
  H     1902.885     -84.992     938.037
  H     1901.539     -86.077     937.558
  H     1901.685     -84.434     936.827
  H     1907.445     -82.844     930.179
  H     1906.583     -81.445     929.584
  H     1905.732     -82.947     929.849

 3  4  5  6  7  8  9  10  11  12  22  25  29  30  31  32 0
 6-311+G(2d,p)
 ****
 33  36  37 0
 6-311+G(2d,p)
 ****
 1  2  13  14  15  16  17  18  19  20  21  23  24  26 0
 3-21G
 ****
 27  28  34  35  38  39  40  41  42  43  44  45  46  47  48 0
 3-21G
 ****


