%nproc=1
%NoSave
%Mem=1900MB
#P OB98/GEN NMR

erre ene a

0 1
  C     1293.054    -516.444     244.012
  O     1292.902    -516.238     242.614
  P     1293.189    -517.418     241.547
  C     1295.309    -518.653     240.791
  O     1294.792    -517.644     241.643
  C     1296.715    -519.021     241.195
  O     1296.637    -519.684     242.493
  C     1297.468    -519.987     240.317
  O     1298.122    -519.396     239.205
  C     1298.509    -520.556     241.272
  O     1299.585    -519.614     241.415
  C     1297.734    -520.669     242.565
  N     1298.527    -525.220     244.742
  C     1299.243    -524.096     244.738
  N     1298.980    -522.906     244.129
  C     1297.789    -522.976     243.476
  C     1296.962    -524.082     243.390
  C     1297.344    -525.243     244.093
  N     1296.595    -526.393     244.088
  N     1295.834    -523.761     242.636
  C     1296.000    -522.524     242.280
  N     1297.176    -521.985     242.776
  O     1292.636    -517.148     240.195
  O     1292.589    -518.728     242.256
  H     1299.854    -519.365     240.521
  H     1292.489    -519.420     241.566
  H     1300.168    -524.108     245.314
  H     1295.323    -521.923     241.673
  H     1298.325    -520.378     243.452
  H     1298.957    -521.490     240.923
  H     1296.835    -520.827     239.960
  H     1297.294    -518.084     241.361
  H     1295.336    -518.238     239.778
  H     1296.905    -527.164     244.710
  H     1295.641    -526.356     243.720
  H     1294.653    -519.513     240.787
  P     1298.618    -520.353     238.015
  C     1300.541    -522.121     237.861
  O     1299.977    -521.011     238.527
  O     1298.684    -519.721     236.674
  O     1297.572    -521.575     238.086
  H     1297.626    -522.112     238.897
  H     1301.558    -522.291     238.269
  H     1300.647    -521.882     236.783
  H     1299.953    -522.998     237.999
  H     1292.815    -515.541     244.534
  H     1294.065    -516.722     244.224
  H     1292.396    -517.225     244.331

 3  4  5  6  7  8  9  10  11  12  22  25  29  30  31  32 0
 6-311+G(2d,p)
 ****
 33  36  37 0
 6-311+G(2d,p)
 ****
 1  2  13  14  15  16  17  18  19  20  21  23  24  26 0
 3-21G
 ****
 27  28  34  35  38  39  40  41  42  43  44  45  46  47  48 0
 3-21G
 ****


