%nproc=1
%NoSave
%Mem=1900MB
#P OB98/GEN NMR

erre ene a

0 1
  C      370.417     284.755    -898.120
  O      371.719     284.951    -897.560
  P      372.981     284.960    -898.550
  C      375.225     286.245    -898.790
  O      374.004     286.102    -898.070
  C      376.104     287.348    -898.200
  O      375.588     288.685    -898.570
  C      376.079     287.364    -896.660
  O      376.742     286.284    -896.030
  C      376.554     288.759    -896.330
  O      377.968     288.876    -896.390
  C      375.917     289.599    -897.500
  N      374.733     290.351    -897.080
  C      374.922     291.734    -896.910
  O      376.004     292.286    -897.070
  N      373.802     292.431    -896.560
  C      372.568     291.903    -896.270
  O      371.613     292.582    -895.930
  C      372.429     290.447    -896.430
  C      373.521     289.757    -896.830
  O      372.690     284.933    -900.000
  O      373.776     283.623    -898.110
  H      378.189     289.823    -896.250
  H      374.118     283.193    -898.940
  H      373.912     293.428    -896.430
  H      371.487     289.998    -896.230
  H      373.435     288.681    -896.950
  H      376.659     290.304    -897.910
  H      376.228     289.084    -895.330
  H      375.030     287.299    -896.340
  H      377.094     287.258    -898.590
  H      375.003     286.444    -899.860
  H      375.753     285.274    -898.790
  P      376.060     285.421    -894.850
  C      376.388     282.986    -893.980
  O      376.980     284.126    -894.590
  O      374.584     285.202    -894.920
  O      376.422     286.323    -893.540
  H      375.674     286.216    -892.900
  H      377.161     282.208    -893.860
  H      375.587     282.594    -894.590
  H      376.017     283.241    -892.980
  H      369.686     284.774    -897.339
  H      370.382     283.809    -898.618
  H      370.209     285.535    -898.822

 3  4  5  6  7  8  9  10  11  12  13  23  28  29  30  31  32 0
 6-311+G(2d,p)
 ****
 33  34 0
 6-311+G(2d,p)
 ****
 1  2  14  15  16  17  18  19  20  21  22  24  25  26  27 0
 3-21G
 ****
 35  36  37  38  39  40  41  42  43  44  45 0
 3-21G
 ****


