%nproc=1
%NoSave
%Mem=1900MB
#P OB98/GEN NMR

erre ene a

0 1
  C      451.111    -467.301     126.256
  O      450.071    -466.344     126.289
  H      452.033    -466.828     126.607
  H      451.267    -467.662     125.237
  H      450.867    -468.137     126.918
  P      448.633    -466.829     125.772
  C      447.619    -469.083     126.508
  O      448.104    -467.811     126.926
  C      446.302    -469.408     127.204
  O      446.549    -469.579     128.624
  C      445.247    -468.303     127.047
  O      443.959    -468.897     126.895
  C      445.302    -467.568     128.379
  O      444.079    -466.908     128.687
  C      445.678    -468.694     129.342
  N      445.044    -467.616     134.293
  C      444.253    -468.242     133.389
  N      444.504    -468.506     132.093
  C      445.737    -468.091     131.759
  C      446.657    -467.437     132.560
  C      446.262    -467.195     133.894
  N      447.052    -466.534     134.805
  N      447.798    -467.136     131.842
  C      447.578    -467.612     130.635
  N      446.342    -468.183     130.530
  O      448.594    -467.390     124.389
  O      447.742    -465.515     126.000
  H      443.356    -467.576     128.684
  H      447.933    -465.107     126.863
  H      443.282    -468.569     133.765
  H      448.266    -467.553     129.799
  H      444.798    -469.259     129.683
  H      446.096    -466.811     128.343
  H      445.452    -467.643     126.212
  H      445.922    -470.365     126.830
  H      448.354    -469.862     126.747
  H      446.706    -466.412     135.742
  H      447.985    -466.231     134.532
  H      447.484    -469.055     125.422
  P      443.186    -468.699     125.497
  C      443.797    -468.943     123.000
  O      444.057    -469.381     124.337
  O      442.712    -467.315     125.212
  O      441.957    -469.709     125.641
  H      441.171    -469.313     125.227
  H      444.437    -469.468     122.322
  H      443.985    -467.892     122.926
  H      442.775    -469.141     122.752

 6  7  8  9  10  11  12  13  14  15  25  28  32  33  34  35 0
 6-311+G(2d,p)
 ****
 36  39  40 0
 6-311+G(2d,p)
 ****
 1  2  3  4  5  16  17  18  19  20  21  22  23  24 0
 3-21G
 ****
 26  27  29  30  31  37  38  41  42  43  44  45  46  47 0
 3-21G
 ****
 48 0
 3-21G
 ****


