%nproc=1
%NoSave
%Mem=1900MB
#P OB98/GEN NMR

erre ene a

0 1
  C      -24.992    -169.632      32.206
  O      -24.402    -170.008      30.973
  P      -24.353    -168.921      29.796
  C      -22.037    -167.867      30.314
  O      -23.446    -167.693      30.296
  C      -21.336    -166.712      29.595
  O      -21.829    -165.447      30.114
  C      -19.814    -166.712      29.772
  O      -19.198    -166.204      28.579
  C      -19.585    -165.694      30.869
  O      -18.262    -165.160      30.819
  C      -20.688    -164.684      30.557
  N      -20.218    -160.106      32.647
  C      -19.972    -160.506      31.349
  N      -19.448    -159.578      30.521
  N      -20.223    -161.709      30.899
  C      -20.741    -162.535      31.843
  C      -21.043    -162.248      33.156
  C      -20.748    -160.919      33.641
  O      -20.916    -160.508      34.785
  N      -21.587    -163.333      33.792
  C      -21.576    -164.290      32.883
  N      -21.038    -163.863      31.696
  O      -25.836    -168.319      29.802
  O      -24.005    -169.471      28.455
  H      -17.649    -165.904      30.977
  H      -26.337    -168.665      29.041
  H      -19.997    -159.170      32.946
  H      -21.918    -165.302      33.039
  H      -20.401    -164.015      29.736
  H      -19.730    -166.159      31.850
  H      -19.170    -158.655      30.821
  H      -19.386    -167.692      30.012
  H      -19.216    -159.858      29.577
  H      -21.602    -166.747      28.534
  H      -21.786    -168.802      29.813
  H      -21.689    -167.930      31.351
  P      -17.809    -166.892      28.157
  C      -19.057    -168.383      26.424
  O      -18.196    -168.319      27.546
  O      -17.134    -167.248      29.562
  O      -16.935    -166.033      27.307
  H      -16.164    -167.292      29.470
  H      -18.511    -168.820      25.585
  H      -19.429    -167.397      26.133
  H      -19.907    -169.022      26.669
  H      -24.951    -170.456      32.887
  H      -26.012    -169.354      32.043
  H      -24.458    -168.802      32.618

 3  4  5  6  7  8  9  10  11  12  23  26  30  31 0
 6-311+G(2d,p)
 ****
 33  35  36  37  38 0
 6-311+G(2d,p)
 ****
 1  2  13  14  15  16  17  18  19  20  21  22  24  25 0
 3-21G
 ****
 27  28  29  32  34  39  40  41  42  43  44  45  46  47  48  49 0
 3-21G
 ****


