%nproc=1
%NoSave
%Mem=1900MB
#P OB98/GEN NMR

erre ene a

0 1
  C     -230.574    -640.542    -426.443
  O     -230.685    -639.547    -425.446
  P     -231.207    -638.076    -425.803
  C     -233.617    -637.827    -424.967
  O     -232.786    -638.159    -426.070
  C     -234.973    -637.302    -425.434
  O     -234.811    -635.958    -425.961
  C     -235.642    -638.156    -426.516
  O     -237.048    -638.164    -426.245
  C     -235.350    -637.387    -427.790
  O     -236.261    -637.695    -428.832
  C     -235.413    -635.944    -427.272
  N     -234.738    -635.005    -428.154
  C     -235.437    -634.591    -429.289
  O     -236.514    -635.118    -429.579
  N     -234.889    -633.611    -430.075
  C     -233.672    -633.220    -429.853
  N     -233.193    -632.198    -430.609
  C     -232.815    -633.816    -428.811
  C     -233.418    -634.665    -427.979
  O     -230.434    -637.371    -426.866
  O     -231.120    -637.284    -424.414
  H     -230.607    -636.461    -424.547
  H     -237.143    -637.330    -428.603
  H     -231.772    -633.550    -428.742
  H     -232.880    -635.134    -427.164
  H     -236.457    -635.625    -427.147
  H     -234.341    -637.625    -428.139
  H     -235.272    -639.185    -426.533
  H     -235.628    -637.224    -424.556
  H     -233.822    -631.783    -431.284
  H     -233.116    -637.054    -424.382
  H     -232.404    -631.623    -430.309
  H     -233.747    -638.706    -424.321
  P     -237.874    -639.509    -426.542
  C     -238.106    -640.884    -424.354
  O     -237.361    -640.635    -425.523
  O     -237.219    -639.990    -427.929
  O     -239.351    -639.363    -426.703
  H     -237.867    -640.539    -428.410
  H     -237.576    -641.627    -423.753
  H     -239.091    -641.279    -424.604
  H     -238.210    -639.969    -423.764
  H     -230.210    -641.447    -426.004
  H     -229.893    -640.214    -427.200
  H     -231.535    -640.718    -426.879

 3  4  5  6  7  8  9  10  11  12  13  24  27  28  29  30  32 0
 6-311+G(2d,p)
 ****
 34  35 0
 6-311+G(2d,p)
 ****
 1  2  14  15  16  17  18  19  20  21  22  23  25  26 0
 3-21G
 ****
 31  33  36  37  38  39  40  41  42  43  44  45  46 0
 3-21G
 ****


