%nproc=1
%NoSave
%Mem=1900MB
#P OB98/GEN NMR

erre ene a

0 1
  C     -112.047     172.378     -53.769
  O     -110.674     172.722     -53.613
  P     -110.237     174.249     -53.823
  C     -111.256     176.468     -52.801
  O     -110.803     175.144     -52.627
  C     -111.624     177.063     -51.431
  O     -112.734     176.343     -50.854
  C     -110.479     177.002     -50.422
  O     -109.616     178.120     -50.529
  C     -111.225     176.936     -49.105
  O     -111.707     178.241     -48.737
  C     -112.409     176.009     -49.475
  N     -112.203     174.546     -49.379
  C     -113.256     173.724     -48.983
  O     -114.378     174.128     -48.691
  N     -112.984     172.381     -48.938
  C     -111.856     171.771     -49.403
  O     -111.692     170.558     -49.391
  C     -110.836     172.670     -49.949
  C     -111.045     173.989     -49.903
  O     -111.091     174.718     -55.088
  O     -108.768     174.448     -54.032
  H     -110.943     178.845     -48.745
  H     -110.502     174.931     -55.837
  H     -113.710     171.777     -48.585
  H     -109.943     172.225     -50.370
  H     -110.293     174.665     -50.305
  H     -113.289     176.244     -48.864
  H     -110.574     176.615     -48.296
  H     -109.921     176.067     -50.540
  H     -111.934     178.105     -51.578
  H     -112.123     176.500     -53.465
  H     -110.472     177.066     -53.275
  P     -108.134     177.932     -51.106
  C     -106.921     178.875     -53.162
  O     -108.172     178.534     -52.596
  O     -107.548     176.567     -50.975
  O     -107.280     179.033     -50.310
  H     -106.833     178.629     -49.532
  H     -107.069     179.116     -54.217
  H     -106.226     178.035     -53.083
  H     -106.508     179.749     -52.652
  H     -112.174     171.330     -53.597
  H     -112.364     172.617     -54.762
  H     -112.635     172.929     -53.065

 3  4  5  6  7  8  9  10  11  12  13  23  28  29  30  31  32 0
 6-311+G(2d,p)
 ****
 33  34 0
 6-311+G(2d,p)
 ****
 1  2  14  15  16  17  18  19  20  21  22  24  25  26  27 0
 3-21G
 ****
 35  36  37  38  39  40  41  42  43  44  45 0
 3-21G
 ****


