%nproc=1
%NoSave
%Mem=1900MB
#P OB98/GEN NMR

erre ene a

0 1
  C     -143.452      -2.947    -125.620
  O     -142.166      -2.579    -125.161
  H     -144.036      -2.041    -125.797
  H     -143.955      -3.544    -124.854
  H     -143.385      -3.515    -126.553
  P     -141.043      -3.723    -125.130
  C     -140.152      -3.392    -127.543
  O     -139.885      -3.275    -126.153
  C     -138.996      -2.806    -128.358
  O     -139.225      -1.380    -128.530
  C     -137.620      -2.978    -127.698
  O     -136.652      -3.257    -128.715
  C     -137.346      -1.613    -127.089
  O     -135.951      -1.355    -126.929
  C     -138.041      -0.693    -128.089
  N     -136.344       2.941    -125.033
  C     -135.706       1.815    -125.520
  N     -134.426       1.623    -125.128
  N     -136.278       0.952    -126.322
  C     -137.549       1.292    -126.655
  C     -138.288       2.372    -126.235
  C     -137.654       3.307    -125.327
  O     -138.173       4.307    -124.840
  N     -139.553       2.350    -126.773
  C     -139.575       1.256    -127.512
  N     -138.382       0.585    -127.481
  O     -141.754      -4.949    -125.880
  O     -140.566      -4.117    -123.771
  H     -135.855      -0.413    -126.666
  H     -141.873      -5.692    -125.259
  H     -135.862       3.565    -124.405
  H     -140.425       0.902    -128.081
  H     -137.418      -0.479    -128.965
  H     -137.819      -1.547    -126.101
  H     -133.911       2.270    -124.555
  H     -137.600      -3.775    -126.950
  H     -133.927       0.821    -125.508
  H     -139.011      -3.254    -129.360
  H     -141.074      -2.849    -127.773
  H     -140.286      -4.449    -127.800
  P     -135.632      -4.465    -128.439
  C     -137.563      -6.189    -128.334
  O     -136.321      -5.833    -128.925
  O     -135.635      -4.586    -126.842
  O     -134.250      -4.223    -128.966
  H     -134.790      -4.253    -126.483
  H     -137.903      -7.115    -128.749
  H     -138.284      -5.424    -128.532
  H     -137.437      -6.296    -127.277

 6  7  8  9  10  11  12  13  14  15  26  29  33  34 0
 6-311+G(2d,p)
 ****
 36  38  39  40  41 0
 6-311+G(2d,p)
 ****
 1  2  3  4  5  16  17  18  19  20  21  22  23  24  25 0
 3-21G
 ****
 27  28  30  31  32  35  37  42  43  44  45  46  47 0
 3-21G
 ****
 48  49 0
 3-21G
 ****


