%nproc=1
%NoSave
%Mem=1900MB
#P OB98/GEN NMR

erre ene a

0 1
  C      217.841    -211.153     319.475
  O      217.986    -211.353     318.084
  H      217.140    -210.331     319.643
  H      218.804    -210.894     319.927
  H      217.444    -212.058     319.946
  P      219.064    -212.458     317.631
  C      220.467    -210.609     316.442
  O      220.418    -211.612     317.447
  C      221.048    -209.323     317.026
  O      221.456    -208.423     315.976
  C      220.073    -208.532     317.890
  O      219.928    -209.070     319.192
  C      220.762    -207.176     317.908
  O      221.881    -207.222     318.810
  C      221.234    -207.062     316.439
  N      220.269    -206.373     315.581
  C      220.156    -204.988     315.752
  O      220.828    -204.403     316.598
  N      219.246    -204.300     314.981
  C      218.525    -204.932     314.111
  N      217.628    -204.202     313.384
  C      218.628    -206.383     313.886
  C      219.502    -207.037     314.643
  O      218.652    -212.791     316.120
  O      219.186    -213.655     318.514
  H      222.536    -207.829     318.416
  H      219.333    -213.373     315.708
  H      217.995    -206.874     313.157
  H      219.634    -208.110     314.537
  H      222.193    -206.537     316.380
  H      220.108    -206.371     318.244
  H      219.097    -208.419     317.394
  H      221.954    -209.592     317.594
  H      217.538    -203.220     313.603
  H      219.448    -210.428     316.081
  H      216.909    -204.630     312.822
  H      221.090    -210.941     315.605
  P      218.856    -208.371     320.170
  C      220.687    -207.572     321.834
  O      219.629    -207.199     320.956
  O      218.620    -209.483     321.298
  O      217.573    -207.959     319.511
  H      217.684    -209.513     321.571
  H      221.104    -206.695     322.283
  H      221.446    -208.085     321.281
  H      220.306    -208.217     322.598

 6  7  8  9  10  11  12  13  14  15  16  26  30  31  32  33  35 0
 6-311+G(2d,p)
 ****
 37  38 0
 6-311+G(2d,p)
 ****
 1  2  3  4  5  17  18  19  20  21  22  23  24  25 0
 3-21G
 ****
 27  28  29  34  36  39  40  41  42  43  44  45  46 0
 3-21G
 ****


