%nproc=1
%NoSave
%Mem=1900MB
#P OB98/GEN NMR

erre ene a

0 1
  C      -20.034     162.043     576.150
  O      -20.594     161.443     577.315
  P      -19.985     161.564     578.792
  C      -21.652     163.377     579.716
  O      -20.315     163.029     579.353
  C      -21.808     163.633     581.246
  O      -21.024     164.818     581.592
  C      -23.259     163.962     581.572
  O      -24.192     162.907     581.778
  C      -23.179     164.954     582.727
  O      -23.264     164.312     584.002
  C      -21.787     165.592     582.536
  N      -22.175     170.528     583.870
  C      -22.217     169.400     584.670
  N      -22.455     169.604     585.994
  N      -22.081     168.169     584.221
  C      -21.944     168.120     582.870
  C      -21.895     169.145     581.963
  C      -22.013     170.497     582.492
  O      -21.954     171.539     581.821
  N      -21.774     168.698     580.676
  C      -21.769     167.394     580.800
  N      -21.862     166.994     582.118
  O      -18.577     161.083     578.951
  O      -20.935     160.610     579.668
  H      -24.143     163.913     584.090
  H      -20.367     160.223     580.377
  H      -22.274     171.438     584.262
  H      -21.699     166.690     579.971
  H      -21.223     165.588     583.487
  H      -24.004     165.672     582.673
  H      -22.679     170.497     586.376
  H      -23.668     164.540     580.720
  H      -22.696     168.776     586.537
  H      -21.398     162.796     581.815
  H      -22.296     162.545     579.401
  H      -21.978     164.262     579.150
  P      -25.507     162.617     580.895
  C      -24.218     160.888     579.486
  O      -25.016     162.068     579.469
  O      -26.052     164.076     580.536
  O      -26.547     161.791     581.572
  H      -27.002     164.013     580.228
  H      -23.699     160.794     578.525
  H      -24.852     160.010     579.645
  H      -23.465     160.952     580.287
  H      -20.638     161.804     575.300
  H      -19.042     161.671     575.999
  H      -20.001     163.105     576.277

 3  4  5  6  7  8  9  10  11  12  23  26  30  31 0
 6-311+G(2d,p)
 ****
 33  35  36  37  38 0
 6-311+G(2d,p)
 ****
 1  2  13  14  15  16  17  18  19  20  21  22  24  25 0
 3-21G
 ****
 27  28  29  32  34  39  40  41  42  43  44  45  46  47  48  49 0
 3-21G
 ****


