%nproc=1
%NoSave
%Mem=1900MB
#P OB98/GEN NMR

erre ene a

0 1
  C       63.977     320.900     132.019
  O       63.535     322.210     131.731
  H       64.045     320.340     131.083
  H       63.266     320.396     132.679
  H       64.964     320.930     132.487
  P       63.309     323.188     132.983
  C       60.714     323.196     132.854
  O       61.915     323.943     132.729
  C       59.571     323.948     132.179
  O       59.394     325.238     132.806
  C       59.808     324.243     130.705
  O       59.571     323.112     129.885
  C       58.805     325.360     130.471
  O       57.493     324.843     130.205
  C       58.838     326.124     131.813
  N       59.585     327.374     131.715
  C       58.915     328.432     131.110
  O       57.766     328.342     130.677
  N       59.623     329.595     130.982
  C       60.921     329.787     131.357
  O       61.523     330.832     131.149
  C       61.577     328.637     132.005
  C       60.892     327.498     132.143
  O       64.408     324.329     132.753
  O       63.437     322.544     134.321
  H       65.165     324.186     133.350
  H       56.984     325.578     129.809
  H       59.157     330.369     130.536
  H       62.605     328.757     132.321
  H       61.360     326.630     132.600
  H       57.821     326.365     132.140
  H       59.081     325.975     129.613
  H       60.819     324.637     130.554
  H       58.647     323.369     132.315
  H       60.477     323.061     133.914
  H       60.857     322.212     132.397
  P       60.695     322.684     128.826
  C       60.256     324.601     127.081
  O       60.202     323.220     127.396
  O       60.464     321.105     128.749
  O       62.072     323.103     129.211
  H       59.527     320.853     128.828
  H       59.886     324.755     126.089
  H       61.269     324.941     127.141
  H       59.654     325.149     127.775

 6  7  8  9  10  11  12  13  14  15  16  27  31  32  33  34  35 0
 6-311+G(2d,p)
 ****
 36  37 0
 6-311+G(2d,p)
 ****
 1  2  3  4  5  17  18  19  20  21  22  23  24  25 0
 3-21G
 ****
 26  28  29  30  38  39  40  41  42  43  44  45 0
 3-21G
 ****


