%nproc=1
%NoSave
%Mem=1900MB
#P OB98/GEN NMR

erre ene a

0 1
  C      -54.277     -84.091     -96.199
  O      -55.430     -84.244     -97.009
  P      -56.492     -83.055     -97.154
  C      -55.666     -82.454     -99.509
  O      -55.877     -81.981     -98.184
  C      -56.553     -81.716    -100.511
  O      -56.303     -80.284    -100.409
  C      -56.332     -82.115    -101.979
  O      -57.603     -82.020    -102.632
  C      -55.417     -81.010    -102.492
  O      -55.439     -80.882    -103.908
  C      -55.988     -79.814    -101.734
  N      -54.094     -75.722    -104.166
  C      -54.991     -76.660    -104.549
  N      -55.425     -77.736    -103.851
  C      -54.834     -77.789    -102.644
  C      -53.881     -76.921    -102.128
  C      -53.521     -75.832    -102.945
  N      -52.638     -74.845    -102.557
  N      -53.472     -77.344    -100.875
  C      -54.166     -78.441    -100.643
  N      -55.047     -78.710    -101.651
  O      -56.979     -82.478     -95.864
  O      -57.694     -83.709     -97.987
  H      -54.887     -80.116    -104.157
  H      -58.454     -83.878     -97.396
  H      -55.426     -76.530    -105.538
  H      -54.070     -79.076     -99.768
  H      -56.909     -79.439    -102.192
  H      -54.384     -81.219    -102.185
  H      -55.902     -83.112    -102.111
  H      -57.600     -81.880    -100.225
  H      -55.910     -83.522     -99.525
  H      -52.553     -74.040    -103.162
  H      -52.398     -74.756    -101.570
  H      -54.611     -82.336     -99.781
  P      -57.909     -82.927    -103.924
  C      -59.524     -84.274    -102.459
  O      -58.443     -84.331    -103.377
  O      -56.801     -83.001    -104.926
  O      -59.231     -82.253    -104.544
  H      -59.335     -82.541    -105.474
  H      -59.137     -84.043    -101.458
  H      -60.025     -85.246    -102.432
  H      -60.247     -83.509    -102.752
  H      -53.696     -84.989     -96.232
  H      -54.574     -83.895     -95.190
  H      -53.691     -83.274     -96.564

 3  4  5  6  7  8  9  10  11  12  22  25  29  30  31  32 0
 6-311+G(2d,p)
 ****
 33  36  37 0
 6-311+G(2d,p)
 ****
 1  2  13  14  15  16  17  18  19  20  21  23  24  26 0
 3-21G
 ****
 27  28  34  35  38  39  40  41  42  43  44  45  46  47  48 0
 3-21G
 ****


