%nproc=1
%NoSave
%Mem=1900MB
#P OB98/GEN NMR

erre ene a

0 1
  C      491.481     304.665     -51.857
  O      491.247     305.065     -50.524
  P      492.003     306.279     -49.816
  C      493.705     304.567     -48.797
  O      493.499     305.810     -49.464
  C      494.826     304.688     -47.756
  O      494.881     303.456     -46.996
  C      496.204     304.854     -48.427
  O      497.053     305.808     -47.793
  C      496.716     303.424     -48.521
  O      498.117     303.325     -48.688
  C      496.147     302.807     -47.243
  N      497.436     298.276     -45.326
  C      497.696     299.538     -44.824
  N      498.561     299.599     -43.788
  N      497.182     300.636     -45.332
  C      496.427     300.427     -46.431
  C      496.092     299.226     -47.014
  C      496.640     298.019     -46.431
  O      496.525     296.891     -46.905
  N      495.365     299.396     -48.160
  C      495.276     300.708     -48.293
  N      495.943     301.371     -47.286
  O      491.236     307.028     -48.777
  O      492.248     307.277     -51.059
  H      498.345     303.723     -49.545
  H      492.190     308.190     -50.709
  H      497.925     297.477     -44.944
  H      494.787     301.223     -49.103
  H      496.795     302.995     -46.384
  H      496.258     302.970     -49.406
  H      499.078     298.797     -43.482
  H      496.097     305.258     -49.443
  H      498.962     300.514     -43.577
  H      494.597     305.500     -47.062
  H      493.983     303.845     -49.569
  H      492.783     304.227     -48.326
  P      497.944     306.950     -48.458
  C      499.980     305.394     -48.499
  O      499.158     306.261     -49.248
  O      498.689     307.667     -47.225
  O      497.181     307.961     -49.252
  H      498.720     308.622     -47.379
  H      500.905     305.213     -49.061
  H      499.476     304.440     -48.347
  H      500.236     305.836     -47.536
  H      490.853     303.832     -52.095
  H      492.507     304.382     -51.970
  H      491.260     305.478     -52.517

 3  4  5  6  7  8  9  10  11  12  23  26  30  31 0
 6-311+G(2d,p)
 ****
 33  35  36  37  38 0
 6-311+G(2d,p)
 ****
 1  2  13  14  15  16  17  18  19  20  21  22  24  25 0
 3-21G
 ****
 27  28  29  32  34  39  40  41  42  43  44  45  46  47  48  49 0
 3-21G
 ****


