%nproc=1
%NoSave
%Mem=1900MB
#P OB98/GEN NMR

erre ene a

0 1
  C      117.760     323.394     -20.561
  O      118.965     324.034     -20.923
  H      117.003     323.620     -21.317
  H      117.409     323.767     -19.595
  H      117.893     322.310     -20.514
  P      120.287     323.731     -20.070
  C      120.573     323.168     -17.572
  O      119.918     323.989     -18.531
  C      119.775     323.154     -16.271
  O      118.526     322.455     -16.463
  C      120.477     322.430     -15.128
  O      121.522     323.209     -14.579
  C      119.306     322.171     -14.195
  O      119.011     323.327     -13.401
  C      118.158     321.884     -15.186
  N      117.882     320.452     -15.309
  C      116.848     319.957     -14.522
  O      116.175     320.654     -13.768
  N      116.648     318.604     -14.586
  C      117.451     317.711     -15.235
  O      117.384     316.497     -15.066
  C      118.488     318.296     -16.097
  C      118.662     319.620     -16.087
  O      121.531     324.404     -20.546
  O      120.421     322.136     -20.142
  H      121.108     321.901     -20.795
  H      118.173     323.126     -12.936
  H      115.925     318.230     -13.988
  H      119.101     317.623     -16.685
  H      119.443     320.072     -16.686
  H      117.239     322.390     -14.867
  H      119.511     321.342     -13.513
  H      120.866     321.470     -15.483
  H      119.546     324.191     -15.993
  H      121.573     323.575     -17.383
  H      120.673     322.154     -17.978
  P      122.856     322.506     -14.040
  C      123.267     320.358     -12.692
  O      122.455     321.517     -12.844
  O      123.985     323.433     -13.735
  O      123.259     321.491     -15.213
  H      124.202     321.622     -15.434
  H      122.908     319.776     -11.869
  H      124.279     320.653     -12.506
  H      123.225     319.773     -13.587

 6  7  8  9  10  11  12  13  14  15  16  27  31  32  33  34  35 0
 6-311+G(2d,p)
 ****
 36  37 0
 6-311+G(2d,p)
 ****
 1  2  3  4  5  17  18  19  20  21  22  23  24  25 0
 3-21G
 ****
 26  28  29  30  38  39  40  41  42  43  44  45 0
 3-21G
 ****


