%nproc=1
%NoSave
%Mem=1900MB
#P OB98/GEN NMR

erre ene a

0 1
  C      -80.920     126.108     699.078
  O      -82.114     125.312     699.041
  P      -83.548     125.954     698.719
  C      -85.764     126.459     699.919
  O      -84.375     126.218     700.083
  C      -86.461     126.858     701.232
  O      -86.491     125.747     702.169
  C      -85.822     128.044     701.971
  O      -86.884     128.716     702.648
  C      -84.920     127.339     702.978
  O      -84.525     128.169     704.060
  C      -85.809     126.165     703.370
  N      -86.144     121.818     706.073
  C      -87.089     122.593     705.491
  N      -86.920     123.704     704.760
  C      -85.610     123.994     704.602
  C      -84.532     123.293     705.128
  C      -84.837     122.159     705.900
  N      -83.885     121.385     706.536
  N      -83.342     123.900     704.786
  C      -83.693     124.957     704.082
  N      -85.059     125.056     703.937
  O      -84.335     125.212     697.678
  O      -83.212     127.428     698.196
  H      -83.927     127.655     704.629
  H      -83.741     127.614     697.391
  H      -88.120     122.275     705.649
  H      -83.014     125.690     703.669
  H      -86.569     126.465     704.105
  H      -84.003     127.003     702.467
  H      -85.275     128.727     701.316
  H      -87.510     127.084     700.983
  H      -86.237     125.548     699.529
  H      -84.207     120.652     707.143
  H      -82.926     121.699     706.529
  H      -85.908     127.249     699.173
  P      -87.126     130.292     702.474
  C      -86.263     132.413     703.631
  O      -86.085     131.025     703.458
  O      -88.547     130.738     702.636
  O      -86.561     130.637     701.014
  H      -86.933     131.485     700.713
  H      -85.894     132.946     702.740
  H      -85.698     132.739     704.504
  H      -87.322     132.652     703.784
  H      -80.082     125.484     699.309
  H      -81.019     126.865     699.828
  H      -80.769     126.569     698.124

 3  4  5  6  7  8  9  10  11  12  22  25  29  30  31  32 0
 6-311+G(2d,p)
 ****
 33  36  37 0
 6-311+G(2d,p)
 ****
 1  2  13  14  15  16  17  18  19  20  21  23  24  26 0
 3-21G
 ****
 27  28  34  35  38  39  40  41  42  43  44  45  46  47  48 0
 3-21G
 ****


