%nproc=1
%NoSave
%Mem=1900MB
#P OB98/GEN NMR

erre ene a

0 1
  C      176.957    -889.010     605.191
  O      177.747    -890.186     605.263
  H      177.569    -888.202     604.774
  H      176.629    -888.719     606.194
  H      176.093    -889.167     604.539
  P      177.010    -891.521     605.770
  C      178.015    -891.189     608.138
  O      177.855    -892.050     607.024
  C      178.904    -891.820     609.206
  O      178.259    -893.040     609.686
  C      180.312    -892.210     608.706
  O      181.224    -892.000     609.797
  C      180.188    -893.710     608.464
  O      181.448    -894.360     608.475
  C      179.254    -894.100     609.617
  N      180.093    -899.050     609.888
  C      180.898    -897.980     610.213
  N      182.137    -898.280     610.696
  N      180.550    -896.730     610.098
  C      179.271    -896.580     609.634
  C      178.373    -897.550     609.272
  C      178.795    -898.940     609.396
  O      178.125    -899.920     609.090
  N      177.195    -896.990     608.818
  C      177.394    -895.680     608.927
  N      178.636    -895.390     609.410
  O      177.351    -892.560     604.607
  O      175.541    -891.393     605.995
  H      182.068    -893.810     607.946
  H      176.639    -892.580     603.942
  H      180.415    -900.000     609.985
  H      176.672    -894.930     608.658
  H      179.776    -894.130     610.577
  H      179.704    -893.890     607.492
  H      182.458    -899.220     610.876
  H      180.646    -891.662     607.834
  H      182.730    -897.510     610.996
  H      178.957    -891.141     610.075
  H      177.025    -890.981     608.566
  H      178.461    -890.248     607.800
  P      181.828    -890.537     610.005
  C      183.840    -891.220     608.490
  O      183.395    -890.588     609.693
  O      181.785    -890.353     611.609
  O      181.061    -889.452     609.314
  H      181.703    -889.427     611.839
  H      184.907    -891.168     608.434
  H      183.414    -890.720     607.646
  H      183.532    -892.245     608.491

 6  7  8  9  10  11  12  13  14  15  26  29  33  34 0
 6-311+G(2d,p)
 ****
 36  38  39  40  41 0
 6-311+G(2d,p)
 ****
 1  2  3  4  5  16  17  18  19  20  21  22  23  24  25 0
 3-21G
 ****
 27  28  30  31  32  35  37  42  43  44  45  46  47 0
 3-21G
 ****
 48  49 0
 3-21G
 ****


