%nproc=1
%NoSave
%Mem=1900MB
#P OB98/GEN NMR

erre ene a

0 1
  C      182.807     612.821     399.474
  O      182.610     614.096     398.854
  P      181.393     615.065     399.258
  C      183.044     616.907     399.987
  O      181.907     616.121     400.345
  C      183.101     618.219     400.779
  O      181.993     619.074     400.435
  C      183.041     618.041     402.296
  O      184.303     617.642     402.800
  C      182.577     619.430     402.734
  O      183.687     620.338     402.776
  C      181.614     619.819     401.614
  N      176.902     619.304     399.688
  C      178.103     619.538     399.104
  N      179.310     619.667     399.687
  C      179.210     619.501     401.015
  C      178.056     619.270     401.752
  C      176.857     619.175     401.028
  N      175.641     618.953     401.630
  N      178.347     619.189     403.098
  C      179.658     619.356     403.168
  N      180.220     619.549     401.941
  O      180.138     614.347     399.640
  O      181.148     615.975     397.953
  H      184.287     620.034     403.486
  H      180.212     616.249     397.920
  H      178.083     619.629     398.017
  H      180.233     619.336     404.089
  H      181.690     620.871     401.355
  H      182.126     619.425     403.731
  H      182.282     617.303     402.559
  H      184.020     618.739     400.488
  H      182.977     617.134     398.918
  H      174.820     618.924     401.040
  H      175.588     618.899     402.631
  H      183.945     616.322     400.168
  P      184.399     616.475     403.891
  C      185.570     614.956     402.182
  O      184.487     615.086     403.085
  O      183.372     616.518     404.972
  O      185.880     616.630     404.481
  H      185.886     616.315     405.410
  H      185.329     615.481     401.251
  H      185.716     613.893     401.966
  H      186.490     615.367     402.607
  H      183.671     612.350     399.054
  H      181.948     612.206     399.305
  H      182.949     612.954     400.526

 3  4  5  6  7  8  9  10  11  12  22  25  29  30  31  32 0
 6-311+G(2d,p)
 ****
 33  36  37 0
 6-311+G(2d,p)
 ****
 1  2  13  14  15  16  17  18  19  20  21  23  24  26 0
 3-21G
 ****
 27  28  34  35  38  39  40  41  42  43  44  45  46  47  48 0
 3-21G
 ****


