%nproc=1
%NoSave
%Mem=1900MB
#P OB98/GEN NMR

erre ene a

0 1
  C     -168.692     167.603     169.806
  O     -168.711     168.975     170.149
  H     -169.577     167.380     169.204
  H     -168.717     166.988     170.710
  H     -167.798     167.374     169.220
  P     -167.474     169.511     171.020
  C     -168.245     168.110     173.055
  O     -167.221     168.353     172.101
  C     -167.670     167.419     174.291
  O     -168.698     167.204     175.274
  C     -167.065     166.047     174.018
  O     -165.753     166.170     173.495
  C     -167.061     165.456     175.419
  O     -165.937     165.970     176.161
  C     -168.374     165.998     176.015
  N     -171.126     162.494     178.564
  C     -169.954     163.097     178.855
  N     -169.260     163.986     178.110
  C     -169.893     164.240     176.955
  C     -171.097     163.700     176.524
  C     -171.730     162.793     177.391
  N     -172.932     162.188     177.096
  N     -171.437     164.193     175.282
  C     -170.485     165.059     174.994
  N     -169.509     165.097     175.957
  O     -167.608     170.896     171.551
  O     -166.262     169.291     169.994
  H     -165.944     165.542     177.038
  H     -166.380     168.461     169.501
  H     -169.513     162.835     179.813
  H     -170.462     165.689     174.114
  H     -168.255     166.281     177.067
  H     -166.965     164.368     175.412
  H     -167.714     165.443     173.376
  H     -166.930     168.093     174.737
  H     -169.036     167.492     172.617
  H     -173.227     161.428     177.689
  H     -173.314     162.316     176.171
  H     -168.676     169.078     173.330
  P     -165.254     165.219     172.305
  C     -164.145     163.501     173.863
  O     -165.175     163.733     172.910
  O     -164.018     165.670     171.609
  O     -166.502     165.135     171.308
  H     -166.194     165.134     170.381
  H     -164.188     162.485     174.195
  H     -164.279     164.155     174.699
  H     -163.193     163.689     173.412

 6  7  8  9  10  11  12  13  14  15  25  28  32  33  34  35 0
 6-311+G(2d,p)
 ****
 36  39  40 0
 6-311+G(2d,p)
 ****
 1  2  3  4  5  16  17  18  19  20  21  22  23  24 0
 3-21G
 ****
 26  27  29  30  31  37  38  41  42  43  44  45  46  47 0
 3-21G
 ****
 48 0
 3-21G
 ****


