%nproc=1
%NoSave
%Mem=1900MB
#P OB98/GEN NMR

erre ene a

0 1
  C      -86.840      63.572     -23.975
  O      -86.513      62.296     -23.470
  H      -86.594      63.599     -25.040
  H      -86.249      64.334     -23.458
  H      -87.904      63.789     -23.855
  P      -87.159      61.829     -22.083
  C      -84.990      62.438     -20.825
  O      -86.399      62.608     -20.901
  C      -84.356      63.375     -19.797
  O      -84.501      64.749     -20.218
  C      -85.033      63.279     -18.429
  O      -84.572      62.230     -17.597
  C      -84.706      64.641     -17.823
  O      -83.416      64.624     -17.191
  C      -84.694      65.561     -19.046
  N      -87.196      69.856     -17.865
  C      -85.954      69.427     -17.436
  N      -85.329      70.215     -16.535
  N      -85.395      68.319     -17.844
  C      -86.179      67.586     -18.670
  C      -87.429      67.901     -19.153
  C      -88.018      69.158     -18.738
  O      -89.117      69.581     -19.082
  N      -87.916      66.912     -19.975
  C      -86.994      65.971     -19.928
  N      -85.909      66.345     -19.171
  O      -86.624      60.327     -21.905
  O      -88.656      61.878     -22.024
  H      -83.479      64.092     -16.378
  H      -87.246      59.816     -21.356
  H      -87.565      70.732     -17.539
  H      -87.050      65.018     -20.443
  H      -83.856      66.269     -19.007
  H      -85.431      64.926     -17.054
  H      -85.769      71.014     -16.106
  H      -86.119      63.206     -18.545
  H      -84.555      69.812     -16.003
  H      -83.281      63.167     -19.732
  H      -84.593      62.653     -21.820
  H      -84.745      61.397     -20.597
  P      -85.576      61.519     -16.573
  C      -84.584      63.063     -14.727
  O      -85.737      62.502     -15.317
  O      -84.701      60.308     -16.001
  O      -86.855      61.045     -17.172
  H      -84.903      59.487     -16.487
  H      -84.871      63.689     -13.908
  H      -84.059      63.646     -15.455
  H      -83.948      62.279     -14.371

 6  7  8  9  10  11  12  13  14  15  26  29  33  34 0
 6-311+G(2d,p)
 ****
 36  38  39  40  41 0
 6-311+G(2d,p)
 ****
 1  2  3  4  5  16  17  18  19  20  21  22  23  24  25 0
 3-21G
 ****
 27  28  30  31  32  35  37  42  43  44  45  46  47 0
 3-21G
 ****
 48  49 0
 3-21G
 ****


