%nproc=1
%NoSave
%Mem=1900MB
#P OB98/GEN NMR

erre ene a

0 1
  C     -731.369    -898.057     169.283
  O     -731.645    -897.762     167.918
  P     -730.651    -898.176     166.722
  C     -730.011    -895.722     166.226
  O     -729.533    -897.025     166.564
  C     -728.849    -894.736     165.998
  O     -728.085    -895.108     164.836
  C     -729.286    -893.283     165.802
  O     -729.599    -892.689     167.042
  C     -728.051    -892.729     165.098
  O     -727.028    -892.396     166.056
  C     -727.613    -893.904     164.218
  N     -726.271    -892.913     159.380
  C     -725.557    -892.967     160.511
  N     -725.984    -893.230     161.785
  C     -727.308    -893.489     161.781
  C     -728.176    -893.467     160.688
  C     -727.602    -893.167     159.441
  N     -728.329    -893.092     158.284
  N     -729.455    -893.755     161.075
  C     -729.376    -893.971     162.386
  N     -728.078    -893.813     162.847
  O     -731.339    -898.543     165.452
  O     -729.824    -899.424     167.306
  H     -726.355    -891.875     165.572
  H     -729.540    -900.000     166.568
  H     -724.477    -892.762     160.423
  H     -730.212    -894.228     163.022
  H     -726.512    -893.986     164.167
  H     -728.294    -891.805     164.540
  H     -730.139    -893.249     165.120
  H     -728.184    -894.836     166.867
  H     -730.646    -895.371     167.059
  H     -727.856    -892.837     157.426
  H     -729.343    -893.220     158.323
  H     -730.625    -895.796     165.320
  P     -731.131    -892.611     167.528
  C     -731.985    -890.566     166.259
  O     -731.985    -891.983     166.344
  O     -731.340    -891.999     168.870
  O     -731.590    -894.143     167.527
  H     -732.272    -894.293     168.199
  H     -732.699    -890.166     166.983
  H     -732.297    -890.270     165.234
  H     -730.988    -890.165     166.445
  H     -732.165    -897.689     169.896
  H     -730.451    -897.588     169.571
  H     -731.283    -899.116     169.409

 3  4  5  6  7  8  9  10  11  12  22  25  29  30  31  32 0
 6-311+G(2d,p)
 ****
 33  36  37 0
 6-311+G(2d,p)
 ****
 1  2  13  14  15  16  17  18  19  20  21  23  24  26 0
 3-21G
 ****
 27  28  34  35  38  39  40  41  42  43  44  45  46  47  48 0
 3-21G
 ****


