%nproc=1
%NoSave
%Mem=1900MB
#P OB98/GEN NMR

erre ene a

0 1
  C     -202.621      46.949     -89.356
  O     -201.254      46.850     -89.702
  H     -202.914      46.041     -88.822
  H     -203.228      47.034     -90.261
  H     -202.799      47.810     -88.707
  P     -200.496      48.150     -90.255
  C     -198.767      47.830     -88.365
  O     -198.974      48.045     -89.755
  C     -197.332      47.365     -88.097
  O     -197.207      45.976     -88.538
  C     -196.256      48.183     -88.842
  O     -195.084      48.199     -88.015
  C     -196.043      47.326     -90.077
  O     -194.877      47.688     -90.768
  C     -196.081      45.934     -89.438
  N     -196.214      44.853     -90.407
  C     -195.062      44.434     -91.063
  O     -193.944      44.909     -90.857
  N     -195.231      43.441     -91.991
  C     -196.415      42.847     -92.323
  O     -196.508      41.947     -93.148
  C     -197.604      43.354     -91.616
  C     -197.452      44.317     -90.705
  O     -201.162      49.456     -89.977
  O     -200.374      47.875     -91.829
  H     -201.092      48.342     -92.298
  H     -194.686      47.044     -91.485
  H     -194.406      43.126     -92.477
  H     -198.561      42.919     -91.873
  H     -198.306      44.716     -90.166
  H     -195.186      45.762     -88.831
  H     -196.876      47.453     -90.774
  H     -196.572      49.209     -89.054
  H     -197.155      47.371     -87.015
  H     -199.477      47.066     -88.028
  H     -198.965      48.763     -87.825
  P     -194.345      49.551     -87.560
  C     -194.731      49.078     -85.056
  O     -193.779      49.372     -86.068
  O     -195.183      50.779     -87.733
  O     -193.025      49.643     -88.461
  H     -192.845      50.578     -88.676
  H     -194.232      48.983     -84.114
  H     -195.229      48.160     -85.290
  H     -195.449      49.869     -85.001

 6  7  8  9  10  11  12  13  14  15  16  27  31  32  33  34  35 0
 6-311+G(2d,p)
 ****
 36  37 0
 6-311+G(2d,p)
 ****
 1  2  3  4  5  17  18  19  20  21  22  23  24  25 0
 3-21G
 ****
 26  28  29  30  38  39  40  41  42  43  44  45 0
 3-21G
 ****


