%nproc=1
%NoSave
%Mem=1900MB
#P OB98/GEN NMR

erre ene a

0 1
  C     -107.084     -35.569     -66.240
  O     -105.993     -35.426     -67.134
  P     -105.819     -34.019     -67.889
  C     -106.984     -35.168     -69.915
  O     -106.870     -34.013     -69.101
  C     -108.167     -35.032     -70.877
  O     -109.358     -34.736     -70.104
  C     -108.019     -33.923     -71.925
  O     -108.704     -34.367     -73.102
  C     -108.775     -32.763     -71.303
  O     -109.188     -31.797     -72.265
  C     -109.914     -33.504     -70.614
  N     -113.988     -30.970     -69.012
  C     -113.733     -31.550     -70.242
  N     -114.732     -31.495     -71.148
  N     -112.604     -32.132     -70.552
  C     -111.706     -32.123     -69.539
  C     -111.825     -31.550     -68.295
  C     -113.091     -30.943     -67.951
  O     -113.391     -30.495     -66.847
  N     -110.668     -31.669     -67.573
  C     -109.879     -32.385     -68.348
  N     -110.480     -32.724     -69.531
  O     -104.404     -34.178     -68.614
  O     -105.885     -32.804     -67.017
  H     -109.893     -32.202     -72.811
  H     -103.684     -33.809     -68.067
  H     -114.883     -30.552     -68.825
  H     -108.874     -32.691     -68.107
  H     -110.730     -33.756     -71.303
  H     -108.135     -32.255     -70.571
  H     -115.637     -31.090     -70.967
  H     -106.980     -33.676     -72.158
  H     -114.584     -31.941     -72.046
  H     -108.326     -36.001     -71.365
  H     -107.154     -36.039     -69.274
  H     -106.050     -35.323     -70.467
  P     -108.151     -33.871     -74.523
  C     -109.773     -31.854     -74.603
  O     -108.432     -32.300     -74.631
  O     -109.203     -34.504     -75.554
  O     -106.761     -34.315     -74.843
  H     -108.751     -34.716     -76.393
  H     -109.789     -30.809     -74.286
  H     -110.379     -32.442     -73.907
  H     -110.200     -31.925     -75.606
  H     -107.071     -36.551     -65.815
  H     -108.002     -35.422     -66.771
  H     -107.003     -34.842     -65.459

 3  4  5  6  7  8  9  10  11  12  23  26  30  31 0
 6-311+G(2d,p)
 ****
 33  35  36  37  38 0
 6-311+G(2d,p)
 ****
 1  2  13  14  15  16  17  18  19  20  21  22  24  25 0
 3-21G
 ****
 27  28  29  32  34  39  40  41  42  43  44  45  46  47  48  49 0
 3-21G
 ****


