%nproc=1
%NoSave
%Mem=1900MB
#P OB98/GEN NMR

erre ene a

0 1
  C      378.269      60.582     241.529
  O      378.256      61.795     240.788
  P      377.800      61.816     239.247
  C      379.504      62.040     237.335
  O      379.062      61.252     238.432
  C      380.676      62.920     237.759
  O      381.593      62.125     238.550
  C      381.533      63.492     236.625
  O      381.024      64.690     236.044
  C      382.824      63.805     237.371
  O      382.677      65.032     238.103
  C      382.941      62.621     238.335
  N      385.821      58.583     239.600
  C      385.086      59.443     240.344
  N      384.361      60.511     239.933
  C      384.407      60.622     238.596
  C      385.104      59.820     237.700
  C      385.837      58.756     238.256
  N      386.569      57.876     237.496
  N      384.921      60.261     236.405
  C      384.117      61.299     236.516
  N      383.767      61.550     237.814
  O      377.261      63.124     238.782
  O      376.736      60.628     239.134
  H      382.344      65.703     237.472
  H      376.210      60.725     238.313
  H      385.089      59.255     241.415
  H      383.757      61.895     235.687
  H      383.338      62.909     239.315
  H      383.685      63.935     236.702
  H      381.729      62.736     235.859
  H      380.289      63.730     238.397
  H      378.674      62.676     237.007
  H      386.958      57.068     237.955
  H      386.452      57.898     236.483
  H      379.783      61.386     236.501
  P      381.541      65.065     234.567
  C      383.314      66.992     234.466
  O      383.021      65.639     234.757
  O      380.609      65.930     233.790
  O      381.782      63.625     233.901
  H      382.510      63.108     234.283
  H      384.327      67.217     234.805
  H      382.614      67.655     234.968
  H      383.266      67.154     233.377
  H      378.600      60.778     242.527
  H      378.934      59.886     241.062
  H      377.282      60.169     241.555

 3  4  5  6  7  8  9  10  11  12  22  25  29  30  31  32 0
 6-311+G(2d,p)
 ****
 33  36  37 0
 6-311+G(2d,p)
 ****
 1  2  13  14  15  16  17  18  19  20  21  23  24  26 0
 3-21G
 ****
 27  28  34  35  38  39  40  41  42  43  44  45  46  47  48 0
 3-21G
 ****


