%nproc=1
%NoSave
%Mem=1900MB
#P OB98/GEN NMR

erre ene a

0 1
  C      -49.095    -133.073     -67.691
  O      -49.144    -134.027     -68.731
  H      -49.997    -133.175     -67.082
  H      -49.061    -132.058     -68.096
  H      -48.224    -133.251     -67.054
  P      -47.982    -134.005     -69.840
  C      -49.245    -132.125     -71.103
  O      -48.048    -132.516     -70.449
  C      -48.926    -131.502     -72.460
  O      -48.179    -130.277     -72.305
  C      -48.067    -132.368     -73.378
  O      -48.773    -133.455     -73.952
  C      -47.655    -131.329     -74.409
  O      -48.756    -131.071     -75.297
  C      -47.374    -130.102     -73.506
  N      -45.961    -129.963     -73.156
  C      -45.322    -128.792     -73.584
  O      -45.940    -127.940     -74.221
  N      -43.984    -128.630     -73.313
  C      -43.337    -129.564     -72.688
  N      -42.002    -129.375     -72.487
  C      -43.973    -130.804     -72.205
  C      -45.270    -130.941     -72.473
  O      -48.008    -135.109     -70.848
  O      -46.626    -133.946     -68.994
  H      -48.514    -130.293     -75.832
  H      -45.874    -133.943     -69.636
  H      -43.385    -131.554     -71.695
  H      -45.804    -131.833     -72.166
  H      -47.712    -129.179     -73.987
  H      -46.807    -131.643     -75.024
  H      -47.169    -132.717     -72.856
  H      -49.881    -131.237     -72.935
  H      -41.592    -128.533     -72.869
  H      -49.770    -131.415     -70.457
  H      -41.386    -130.152     -72.267
  H      -49.886    -132.997     -71.266
  P      -48.023    -134.873     -74.041
  C      -47.449    -134.325     -76.522
  O      -46.984    -134.770     -75.258
  O      -49.166    -135.845     -74.598
  O      -47.422    -135.369     -72.764
  H      -49.631    -136.297     -73.869
  H      -46.636    -134.314     -77.218
  H      -47.850    -133.338     -76.427
  H      -48.211    -134.988     -76.875

 6  7  8  9  10  11  12  13  14  15  16  26  30  31  32  33  35 0
 6-311+G(2d,p)
 ****
 37  38 0
 6-311+G(2d,p)
 ****
 1  2  3  4  5  17  18  19  20  21  22  23  24  25 0
 3-21G
 ****
 27  28  29  34  36  39  40  41  42  43  44  45  46 0
 3-21G
 ****


