%nproc=1
%NoSave
%Mem=1900MB
#P OB98/GEN NMR

erre ene a

0 1
  C     -169.466       8.078    -891.310
  O     -170.399       7.213    -890.650
  P     -170.013       5.664    -890.420
  C     -171.953       4.955    -891.970
  O     -170.546       4.824    -891.670
  C     -172.255       4.279    -893.280
  O     -171.626       4.941    -894.370
  C     -171.790       2.814    -893.360
  O     -172.656       1.973    -892.620
  C     -171.816       2.586    -894.860
  O     -173.139       2.277    -895.320
  C     -171.364       3.969    -895.410
  N     -168.065       3.219    -899.220
  C     -169.385       2.944    -899.100
  N     -170.185       3.157    -898.050
  C     -169.487       3.652    -897.000
  C     -168.126       3.931    -896.960
  C     -167.397       3.717    -898.150
  N     -166.068       4.031    -898.290
  N     -167.770       4.393    -895.720
  C     -168.897       4.379    -895.010
  N     -169.968       4.009    -895.790
  O     -170.383       5.122    -889.080
  O     -168.411       5.642    -890.610
  H     -173.055       1.997    -896.280
  H     -167.990       5.344    -889.770
  H     -169.858       2.562    -900.000
  H     -168.977       4.654    -893.970
  H     -171.966       4.272    -896.290
  H     -171.163       1.768    -895.180
  H     -170.768       2.738    -892.990
  H     -173.354       4.327    -893.440
  H     -172.182       6.020    -892.000
  H     -165.700       3.995    -899.220
  H     -165.641       4.695    -897.620
  H     -172.514       4.506    -891.140
  P     -172.207       0.456    -892.310
  C     -174.086      -0.666    -893.650
  O     -172.700      -0.439    -893.530
  O     -172.571      -0.072    -890.950
  O     -170.600       0.503    -892.510
  H     -170.157      -0.142    -891.900
  H     -174.396      -1.419    -892.920
  H     -174.335      -1.002    -894.650
  H     -174.652       0.273    -893.450
  H     -169.879       9.063    -891.378
  H     -169.268       7.705    -892.293
  H     -168.554       8.112    -890.751

 3  4  5  6  7  8  9  10  11  12  22  25  29  30  31  32 0
 6-311+G(2d,p)
 ****
 33  36  37 0
 6-311+G(2d,p)
 ****
 1  2  13  14  15  16  17  18  19  20  21  23  24  26 0
 3-21G
 ****
 27  28  34  35  38  39  40  41  42  43  44  45  46  47  48 0
 3-21G
 ****


