%nproc=1
%NoSave
%Mem=1900MB
#P OB98/GEN NMR

erre ene a

0 1
  C      -73.774     231.404    -307.317
  O      -73.030     230.332    -306.778
  H      -74.838     231.185    -307.198
  H      -73.551     231.509    -308.384
  H      -73.551     232.341    -306.799
  P      -71.461     230.529    -306.525
  C      -71.838     230.428    -303.971
  O      -71.133     229.902    -305.088
  C      -71.657     229.534    -302.738
  O      -72.347     228.275    -302.964
  C      -70.179     229.196    -302.507
  O      -69.901     228.946    -301.131
  C      -70.005     227.903    -303.290
  O      -68.903     227.117    -302.835
  C      -71.365     227.233    -303.081
  N      -70.619     222.684    -305.256
  C      -69.887     223.310    -304.265
  N      -68.814     222.628    -303.794
  N      -70.163     224.497    -303.803
  C      -71.211     225.091    -304.415
  C      -72.006     224.580    -305.422
  C      -71.710     223.246    -305.906
  O      -72.314     222.660    -306.795
  N      -72.975     225.479    -305.803
  C      -72.771     226.525    -305.029
  N      -71.728     226.329    -304.155
  O      -71.317     232.104    -306.253
  O      -70.565     230.079    -307.639
  H      -69.097     226.845    -301.921
  H      -70.407     232.396    -306.432
  H      -70.381     221.755    -305.554
  H      -73.353     227.442    -305.058
  H      -71.373     226.662    -302.147
  H      -69.812     228.156    -304.331
  H      -68.461     221.810    -304.260
  H      -69.507     229.967    -302.875
  H      -68.102     223.186    -303.310
  H      -72.122     229.998    -301.864
  H      -72.892     230.477    -304.261
  H      -71.513     231.448    -303.762
  P      -68.377     229.035    -300.635
  C      -68.536     231.115    -298.999
  O      -68.319     229.735    -299.198
  O      -67.722     230.118    -301.612
  O      -67.640     227.729    -300.661
  H      -67.027     229.699    -302.162
  H      -68.445     231.344    -297.958
  H      -69.518     231.374    -299.337
  H      -67.810     231.674    -299.552

 6  7  8  9  10  11  12  13  14  15  26  29  33  34 0
 6-311+G(2d,p)
 ****
 36  38  39  40  41 0
 6-311+G(2d,p)
 ****
 1  2  3  4  5  16  17  18  19  20  21  22  23  24  25 0
 3-21G
 ****
 27  28  30  31  32  35  37  42  43  44  45  46  47 0
 3-21G
 ****
 48  49 0
 3-21G
 ****


