%nproc=1
%NoSave
%Mem=1900MB
#P OB98/GEN NMR

erre ene a

0 1
  C      317.770      -7.379     -22.724
  O      318.419      -6.193     -22.318
  H      317.704      -8.053     -21.867
  H      318.351      -7.868     -23.510
  H      316.759      -7.174     -23.083
  P      318.391      -4.922     -23.292
  C      316.324      -3.386     -23.447
  O      317.382      -3.863     -22.628
  C      315.961      -1.944     -23.082
  O      315.561      -1.901     -21.682
  C      317.112      -0.943     -23.263
  O      316.531       0.322     -23.603
  C      317.699      -0.896     -21.864
  O      318.513       0.241     -21.683
  C      316.425      -0.960     -21.018
  N      316.696      -1.339     -19.630
  C      316.711      -0.312     -18.697
  O      316.544       0.871     -18.993
  N      316.970      -0.677     -17.405
  C      317.273      -1.939     -16.980
  O      317.530      -2.205     -15.811
  C      317.286      -2.981     -18.020
  C      316.997      -2.639     -19.278
  O      318.128      -5.215     -24.731
  O      319.817      -4.225     -23.075
  H      319.244       0.243     -22.338
  H      320.097      -3.775     -23.894
  H      316.978       0.055     -16.713
  H      317.531      -3.990     -17.717
  H      316.996      -3.383     -20.068
  H      315.918       0.013     -21.007
  H      318.324      -1.777     -21.678
  H      317.834      -1.251     -24.022
  H      315.083      -1.645     -23.670
  H      315.459      -4.040     -23.296
  H      316.627      -3.438     -24.499
  P      316.381       0.810     -25.123
  C      315.448      -1.039     -26.656
  O      315.135       0.049     -25.789
  O      317.644       0.729     -25.920
  O      315.875       2.325     -25.018
  H      316.168       2.827     -25.801
  H      314.543      -1.464     -27.036
  H      315.991      -1.784     -26.112
  H      316.046      -0.686     -27.470

 6  7  8  9  10  11  12  13  14  15  16  26  31  32  33  34  35 0
 6-311+G(2d,p)
 ****
 36  37 0
 6-311+G(2d,p)
 ****
 1  2  3  4  5  17  18  19  20  21  22  23  24  25 0
 3-21G
 ****
 27  28  29  30  38  39  40  41  42  43  44  45 0
 3-21G
 ****


