%nproc=1
%NoSave
%Mem=1900MB
#P OB98/GEN NMR

erre ene a

0 1
  C      600.378     -31.572    -627.368
  O      601.241     -31.269    -628.468
  P      600.555     -30.618    -629.762
  C      602.259     -28.654    -629.691
  O      600.895     -29.046    -629.769
  C      602.551     -27.568    -630.728
  O      602.341     -28.050    -632.074
  C      601.651     -26.346    -630.601
  O      602.039     -25.541    -629.500
  C      601.852     -25.695    -631.963
  O      603.093     -24.965    -631.994
  C      601.952     -26.917    -632.890
  N      598.746     -25.450    -636.600
  C      599.915     -24.937    -636.161
  N      600.704     -25.385    -635.167
  C      600.192     -26.494    -634.608
  C      599.013     -27.137    -634.954
  C      598.266     -26.567    -636.001
  N      597.066     -27.084    -636.436
  N      598.811     -28.241    -634.152
  C      599.836     -28.254    -633.324
  N      600.703     -27.226    -633.568
  O      598.996     -30.666    -629.418
  O      600.865     -31.336    -631.031
  H      603.001     -24.209    -631.380
  H      598.553     -31.341    -629.967
  H      600.259     -24.045    -636.678
  H      599.991     -28.978    -632.539
  H      602.719     -26.792    -633.668
  H      601.053     -24.997    -632.229
  H      600.606     -26.654    -630.482
  H      603.601     -27.270    -630.630
  H      602.912     -29.512    -629.856
  H      596.560     -26.574    -637.143
  H      596.662     -27.866    -635.941
  H      602.463     -28.296    -628.678
  P      600.999     -25.374    -628.291
  C      602.804     -25.631    -626.480
  O      601.672     -26.211    -627.094
  O      599.805     -26.322    -628.762
  O      600.629     -23.968    -627.968
  H      600.133     -27.181    -629.087
  H      603.136     -26.282    -625.668
  H      602.550     -24.649    -626.071
  H      603.615     -25.533    -627.209
  H      600.951     -31.999    -626.572
  H      599.630     -32.270    -627.683
  H      599.907     -30.674    -627.027

 3  4  5  6  7  8  9  10  11  12  22  25  29  30  31  32 0
 6-311+G(2d,p)
 ****
 33  36  37 0
 6-311+G(2d,p)
 ****
 1  2  13  14  15  16  17  18  19  20  21  23  24  26 0
 3-21G
 ****
 27  28  34  35  38  39  40  41  42  43  44  45  46  47  48 0
 3-21G
 ****


