%nproc=1
%NoSave
%Mem=1900MB
#P OB98/GEN NMR

erre ene a

0 1
  C       58.043     412.322     -88.408
  O       57.071     411.525     -87.712
  P       57.041     409.936     -87.957
  C       54.457     409.529     -87.980
  O       55.696     409.342     -87.314
  C       53.300     409.417     -86.982
  O       53.413     408.198     -86.211
  C       53.249     410.536     -85.953
  O       52.729     411.736     -86.500
  C       52.354     409.919     -84.883
  O       50.966     410.073     -85.221
  C       52.769     408.435     -84.939
  N       53.628     408.048     -83.824
  C       53.017     407.356     -82.784
  O       51.811     407.123     -82.747
  N       53.842     406.971     -81.762
  C       55.172     407.260     -81.649
  O       55.852     406.901     -80.696
  C       55.742     408.063     -82.741
  C       54.956     408.419     -83.757
  O       58.157     409.419     -86.925
  O       57.357     409.488     -89.345
  H       50.455     409.756     -84.451
  H       58.547     408.589     -87.258
  H       53.425     406.442     -81.011
  H       56.790     408.333     -82.676
  H       55.363     409.009     -84.572
  H       51.876     407.796     -84.931
  H       52.497     410.383     -83.902
  H       54.247     410.702     -85.532
  H       52.360     409.373     -87.551
  H       54.341     408.759     -88.750
  H       54.456     410.509     -88.463
  P       53.706     413.011     -86.497
  C       51.898     414.833     -86.005
  O       52.786     414.248     -86.931
  O       54.615     412.698     -87.778
  O       54.463     413.168     -85.219
  H       54.119     412.235     -88.476
  H       52.297     414.797     -84.986
  H       50.941     414.307     -86.036
  H       51.738     415.879     -86.281
  H       57.925     413.349     -88.132
  H       57.900     412.217     -89.463
  H       59.027     411.993     -88.147

 3  4  5  6  7  8  9  10  11  12  13  23  28  29  30  31  32 0
 6-311+G(2d,p)
 ****
 33  34 0
 6-311+G(2d,p)
 ****
 1  2  14  15  16  17  18  19  20  21  22  24  25  26 0
 3-21G
 ****
 27  35  36  37  38  39  40  41  42  43  44  45 0
 3-21G
 ****


