%nproc=1
%NoSave
%Mem=1900MB
#P OB98/GEN NMR

erre ene a

0 1
  C     -424.392     338.820     661.347
  O     -424.332     339.757     662.405
  H     -424.731     339.337     660.442
  H     -425.106     338.029     661.590
  H     -423.404     338.388     661.155
  P     -423.634     339.277     663.766
  C     -423.080     341.781     664.207
  O     -423.584     340.563     664.732
  C     -423.101     342.862     665.282
  O     -424.425     342.906     665.884
  C     -422.095     342.629     666.430
  O     -421.580     343.888     666.852
  C     -422.960     342.039     667.528
  O     -422.417     342.201     668.835
  C     -424.261     342.810     667.312
  N     -425.409     342.154     667.932
  C     -425.865     342.667     669.142
  O     -425.427     343.684     669.685
  N     -426.886     341.967     669.735
  C     -427.457     340.821     669.261
  O     -428.346     340.214     669.849
  C     -426.929     340.324     667.983
  C     -425.942     341.005     667.390
  O     -422.104     339.079     663.343
  O     -424.217     338.057     664.394
  H     -421.958     338.161     663.034
  H     -423.105     341.882     669.470
  H     -427.227     342.326     670.611
  H     -427.348     339.405     667.592
  H     -425.510     340.647     666.452
  H     -424.170     343.834     667.701
  H     -423.105     340.969     667.356
  H     -421.258     341.961     666.164
  H     -422.923     343.837     664.820
  H     -423.717     342.107     663.376
  H     -422.065     341.625     663.834
  P     -419.989     344.092     666.816
  C     -420.446     346.515     665.931
  O     -419.752     345.677     666.844
  O     -419.662     343.670     665.309
  O     -419.276     343.310     667.865
  H     -420.365     343.921     664.677
  H     -420.164     347.534     666.096
  H     -421.500     346.409     666.080
  H     -420.197     346.234     664.929

 6  7  8  9  10  11  12  13  14  15  16  27  31  32  33  34  35 0
 6-311+G(2d,p)
 ****
 36  37 0
 6-311+G(2d,p)
 ****
 1  2  3  4  5  17  18  19  20  21  22  23  24  25 0
 3-21G
 ****
 26  28  29  30  38  39  40  41  42  43  44  45 0
 3-21G
 ****


