%nproc=1
%NoSave
%Mem=1900MB
#P OB98/GEN NMR

erre ene a

0 1
  C      -41.774      17.920      11.029
  O      -42.137      18.905      10.084
  H      -40.717      17.676      10.895
  H      -42.364      17.016      10.856
  H      -41.929      18.278      12.049
  P      -43.508      19.697      10.340
  C      -42.559      21.620      11.802
  O      -43.351      20.443      11.754
  C      -43.421      22.828      12.169
  O      -43.964      22.622      13.508
  C      -42.660      24.165      12.173
  O      -43.532      25.194      11.690
  C      -42.415      24.406      13.651
  O      -42.209      25.782      13.949
  C      -43.693      23.826      14.248
  N      -43.550      26.095      18.722
  C      -43.908      26.581      17.481
  N      -44.218      27.892      17.400
  N      -43.951      25.843      16.403
  C      -43.635      24.545      16.627
  C      -43.262      23.942      17.802
  C      -43.199      24.773      18.987
  O      -42.869      24.406      20.109
  N      -42.961      22.617      17.601
  C      -43.133      22.429      16.303
  N      -43.540      23.570      15.670
  O      -44.542      18.514      10.650
  O      -43.969      20.557       9.212
  H      -41.402      26.079      13.481
  H      -45.014      18.265       9.834
  H      -43.516      26.708      19.518
  H      -42.959      21.502      15.778
  H      -44.552      24.500      14.137
  H      -41.534      23.843      13.982
  H      -44.238      28.516      18.191
  H      -41.739      24.154      11.583
  H      -44.521      28.253      16.503
  H      -44.274      22.871      11.481
  H      -42.107      21.790      10.819
  H      -41.759      21.486      12.537
  P      -43.026      26.099      10.468
  C      -44.114      24.895       8.433
  O      -42.927      25.179       9.158
  O      -41.493      26.379      10.836
  O      -43.789      27.370      10.299
  H      -41.238      27.270      10.533
  H      -43.879      24.274       7.594
  H      -44.550      25.810       8.089
  H      -44.808      24.387       9.070

 6  7  8  9  10  11  12  13  14  15  26  29  33  34 0
 6-311+G(2d,p)
 ****
 36  38  39  40  41 0
 6-311+G(2d,p)
 ****
 1  2  3  4  5  16  17  18  19  20  21  22  23  24  25 0
 3-21G
 ****
 27  28  30  31  32  35  37  42  43  44  45  46  47 0
 3-21G
 ****
 48  49 0
 3-21G
 ****


