%nproc=1
%NoSave
%Mem=1900MB
#P OB98/GEN NMR

erre ene a

0 1
  C      335.821     586.566    -139.501
  O      336.758     585.787    -140.209
  H      336.226     586.790    -138.510
  H      334.891     586.002    -139.381
  H      335.613     587.511    -140.015
  P      336.643     585.700    -141.803
  C      338.627     587.297    -142.225
  O      337.240     587.059    -142.419
  C      339.426     587.074    -143.509
  O      338.983     588.007    -144.522
  C      340.926     587.309    -143.317
  O      341.645     586.175    -142.867
  C      341.365     587.714    -144.721
  O      341.708     586.566    -145.514
  C      340.122     588.410    -145.296
  N      339.100     592.818    -147.677
  C      338.924     591.527    -148.132
  N      338.453     591.405    -149.393
  N      339.205     590.465    -147.421
  C      339.759     590.749    -146.220
  C      339.998     591.992    -145.664
  C      339.620     593.155    -146.430
  O      339.735     594.319    -146.062
  N      340.615     591.883    -144.443
  C      340.824     590.591    -144.302
  N      340.250     589.856    -145.314
  O      335.070     585.863    -142.071
  O      337.157     584.437    -142.417
  H      340.884     586.079    -145.714
  H      334.822     585.361    -142.868
  H      338.838     593.596    -148.255
  H      341.335     590.127    -143.465
  H      339.930     588.096    -146.329
  H      342.253     588.350    -144.687
  H      338.301     592.185    -150.012
  H      341.104     588.156    -142.646
  H      338.493     590.479    -149.836
  H      339.224     586.068    -143.891
  H      338.960     586.597    -141.456
  H      338.790     588.308    -141.839
  P      342.608     586.264    -141.598
  C      341.795     584.228    -140.145
  O      341.854     585.626    -140.342
  O      342.622     587.830    -141.265
  O      343.990     585.718    -141.795
  H      343.426     588.250    -141.627
  H      341.247     584.017    -139.251
  H      342.787     583.838    -140.056
  H      341.306     583.771    -140.979

 6  7  8  9  10  11  12  13  14  15  26  29  33  34 0
 6-311+G(2d,p)
 ****
 36  38  39  40  41 0
 6-311+G(2d,p)
 ****
 1  2  3  4  5  16  17  18  19  20  21  22  23  24  25 0
 3-21G
 ****
 27  28  30  31  32  35  37  42  43  44  45  46  47 0
 3-21G
 ****
 48  49 0
 3-21G
 ****


