%nproc=1
%NoSave
%Mem=1900MB
#P OB98/GEN NMR

erre ene a

0 1
  C      -40.022     262.369     426.734
  O      -39.544     263.016     425.568
  H      -39.327     262.568     427.554
  H      -40.083     261.287     426.582
  H      -41.003     262.763     427.004
  P      -40.230     262.651     424.167
  C      -38.485     260.749     424.202
  O      -39.169     261.710     423.403
  C      -37.360     260.075     423.419
  O      -36.676     259.105     424.242
  C      -37.831     259.292     422.202
  O      -38.376     260.075     421.165
  C      -36.632     258.406     421.914
  O      -35.626     259.080     421.164
  C      -36.114     258.113     423.349
  N      -36.424     256.759     423.782
  C      -35.656     255.746     423.220
  O      -34.778     255.948     422.376
  N      -35.955     254.472     423.622
  C      -36.956     254.120     424.482
  O      -37.183     252.955     424.789
  C      -37.761     255.226     425.020
  C      -37.459     256.480     424.653
  O      -40.701     263.819     423.350
  O      -41.398     261.631     424.562
  H      -34.959     258.414     420.912
  H      -42.045     261.522     423.823
  H      -35.400     253.725     423.230
  H      -38.568     254.984     425.695
  H      -38.037     257.317     425.038
  H      -35.024     258.246     423.393
  H      -36.902     257.507     421.357
  H      -38.646     258.617     422.520
  H      -36.630     260.845     423.137
  H      -39.219     259.989     424.511
  H      -38.089     261.236     425.099
  P      -39.579     259.605     420.231
  C      -37.994     258.897     418.273
  O      -39.093     259.686     418.699
  O      -40.934     260.126     420.567
  O      -39.587     258.007     420.491
  H      -40.522     257.715     420.443
  H      -37.809     259.074     417.234
  H      -38.218     257.862     418.424
  H      -37.125     259.160     418.840

 6  7  8  9  10  11  12  13  14  15  16  26  31  32  33  34  35 0
 6-311+G(2d,p)
 ****
 36  37 0
 6-311+G(2d,p)
 ****
 1  2  3  4  5  17  18  19  20  21  22  23  24  25 0
 3-21G
 ****
 27  28  29  30  38  39  40  41  42  43  44  45 0
 3-21G
 ****


