%nproc=1
%NoSave
%Mem=1900MB
#P OB98/GEN NMR

erre ene a

0 1
  C        5.030       7.430      -3.424
  O        6.437       7.484      -3.522
  H        4.764       7.050      -2.433
  H        4.623       6.751      -4.177
  H        4.593       8.424      -3.545
  P        7.097       8.132      -4.830
  C        7.745       5.798      -5.707
  O        7.054       7.011      -5.975
  C        7.816       4.949      -6.973
  O        6.486       4.666      -7.462
  C        8.548       5.623      -8.127
  O        9.946       5.596      -7.922
  C        8.047       4.791      -9.297
  O        8.752       3.543      -9.382
  C        6.571       4.555      -8.900
  N        5.651       5.485      -9.556
  C        5.251       5.146     -10.844
  O        5.634       4.134     -11.425
  N        4.423       6.043     -11.467
  C        4.045       7.256     -10.969
  O        3.488       8.117     -11.642
  C        4.435       7.525      -9.578
  C        5.221       6.649      -8.950
  O        8.424       8.783      -4.632
  O        5.995       9.186      -5.323
  H        6.262      10.084      -5.047
  H        9.704       3.760      -9.359
  H        4.165       5.830     -12.419
  H        4.100       8.449      -9.124
  H        5.547       6.841      -7.934
  H        6.263       3.534      -9.159
  H        8.179       5.298     -10.255
  H        8.192       6.653      -8.248
  H        8.292       3.993      -6.717
  H        7.198       5.250      -4.932
  H        8.748       6.031      -5.337
  P       10.892       6.742      -8.513
  C       11.398       5.359     -10.609
  O       10.913       6.597     -10.108
  O       12.242       6.836      -7.882
  O       10.062       8.093      -8.286
  H       10.623       8.736      -7.809
  H       11.368       5.371     -11.679
  H       10.785       4.562     -10.244
  H       12.406       5.212     -10.282

 6  7  8  9  10  11  12  13  14  15  16  27  31  32  33  34  35 0
 6-311+G(2d,p)
 ****
 36  37 0
 6-311+G(2d,p)
 ****
 1  2  3  4  5  17  18  19  20  21  22  23  24  25 0
 3-21G
 ****
 26  28  29  30  38  39  40  41  42  43  44  45 0
 3-21G
 ****


