%nproc=1
%NoSave
%Mem=1900MB
#P OB98/GEN NMR

erre ene a

0 1
  C     -108.275     -70.153     -59.110
  O     -108.057     -68.871     -58.548
  P     -109.251     -68.178     -57.733
  C     -108.972     -69.870     -55.743
  O     -109.814     -69.287     -56.720
  C     -109.810     -70.528     -54.642
  O     -108.933     -71.304     -53.782
  C     -110.571     -69.540     -53.748
  O     -111.815     -70.159     -53.395
  C     -109.670     -69.423     -52.533
  O     -110.361     -68.969     -51.380
  C     -109.143     -70.857     -52.429
  N     -107.907     -70.969     -51.654
  C     -107.524     -72.234     -51.219
  O     -108.172     -73.256     -51.431
  N     -106.361     -72.285     -50.494
  C     -105.601     -71.218     -50.113
  O     -104.578     -71.321     -49.448
  C     -106.082     -69.904     -50.560
  C     -107.186     -69.842     -51.304
  O     -110.377     -68.074     -58.863
  O     -108.873     -66.884     -57.098
  H     -110.372     -68.829     -59.475
  H     -109.719     -68.904     -50.649
  H     -106.043     -73.197     -50.201
  H     -105.514     -69.030     -50.265
  H     -107.561     -68.884     -51.644
  H     -109.910     -71.508     -51.991
  H     -108.862     -68.713     -52.746
  H     -110.759     -68.584     -54.245
  H     -110.507     -71.231     -55.115
  H     -108.343     -69.097     -55.296
  H     -108.316     -70.603     -56.223
  P     -113.056     -69.206     -53.013
  C     -114.122     -69.440     -55.392
  O     -113.627     -68.595     -54.378
  O     -112.269     -67.964     -52.368
  O     -114.049     -69.811     -52.078
  H     -111.529     -67.660     -52.917
  H     -114.754     -68.852     -56.062
  H     -114.719     -70.256     -54.977
  H     -113.288     -69.853     -55.966
  H     -107.390     -70.475     -59.618
  H     -109.087     -70.104     -59.805
  H     -108.513     -70.848     -58.332

 3  4  5  6  7  8  9  10  11  12  13  24  28  29  30  31  32 0
 6-311+G(2d,p)
 ****
 33  34 0
 6-311+G(2d,p)
 ****
 1  2  14  15  16  17  18  19  20  21  22  23  25  26  27 0
 3-21G
 ****
 35  36  37  38  39  40  41  42  43  44  45 0
 3-21G
 ****


