%nproc=1
%NoSave
%Mem=1900MB
#P OB98/GEN NMR

erre ene a

0 1
  C     -425.514     669.338    -309.241
  O     -426.598     670.235    -309.114
  H     -425.371     668.806    -308.296
  H     -424.602     669.897    -309.469
  H     -425.705     668.605    -310.027
  P     -427.175     670.884    -310.457
  C     -429.203     669.276    -310.267
  O     -428.189     669.811    -311.106
  C     -430.178     668.419    -311.085
  O     -430.806     669.259    -312.084
  C     -429.497     667.253    -311.821
  O     -430.362     666.118    -311.784
  C     -429.378     667.761    -313.253
  O     -429.321     666.697    -314.202
  C     -430.625     668.636    -313.367
  N     -430.242     669.276    -318.350
  C     -430.474     668.124    -317.608
  N     -430.606     666.980    -318.301
  N     -430.555     668.115    -316.309
  C     -430.431     669.342    -315.752
  C     -430.196     670.542    -316.366
  C     -430.080     670.545    -317.809
  O     -429.846     671.518    -318.517
  N     -430.093     671.562    -315.450
  C     -430.264     670.977    -314.280
  N     -430.487     669.623    -314.410
  O     -425.919     670.850    -311.451
  O     -427.723     672.267    -310.320
  H     -430.179     666.221    -314.164
  H     -425.649     671.760    -311.672
  H     -430.171     669.221    -319.355
  H     -430.239     671.470    -313.320
  H     -431.520     668.044    -313.593
  H     -428.466     668.362    -313.355
  H     -430.612     666.919    -319.307
  H     -428.526     666.986    -311.397
  H     -430.824     666.124    -317.786
  H     -430.963     668.061    -310.417
  H     -429.753     670.098    -309.802
  H     -428.738     668.669    -309.475
  P     -429.725     664.724    -311.314
  C     -430.624     664.522    -308.899
  O     -429.505     664.782    -309.720
  O     -428.221     664.802    -311.891
  O     -430.436     663.520    -311.820
  H     -428.133     664.186    -312.646
  H     -430.336     664.594    -307.871
  H     -430.992     663.537    -309.099
  H     -431.392     665.238    -309.105

 6  7  8  9  10  11  12  13  14  15  26  29  33  34 0
 6-311+G(2d,p)
 ****
 36  38  39  40  41 0
 6-311+G(2d,p)
 ****
 1  2  3  4  5  16  17  18  19  20  21  22  23  24  25 0
 3-21G
 ****
 27  28  30  31  32  35  37  42  43  44  45  46  47 0
 3-21G
 ****
 48  49 0
 3-21G
 ****


