%nproc=1
%NoSave
%Mem=1900MB
#P OB98/GEN NMR

erre ene a

0 1
  C      670.571     183.386     -17.792
  O      671.464     184.030     -16.878
  P      672.402     183.059     -15.991
  C      672.232     184.680     -13.957
  O      673.080     183.962     -14.848
  C      672.955     185.893     -13.373
  O      674.257     185.527     -12.875
  C      673.222     187.009     -14.374
  O      672.063     187.803     -14.597
  C      674.305     187.800     -13.666
  O      673.704     188.697     -12.715
  C      675.106     186.702     -12.941
  N      679.624     184.467     -12.452
  C      678.627     184.657     -11.514
  N      678.854     184.151     -10.279
  N      677.506     185.282     -11.767
  C      677.406     185.707     -13.055
  C      678.319     185.580     -14.068
  C      679.576     184.914     -13.768
  O      680.509     184.742     -14.549
  N      677.860     186.130     -15.240
  C      676.652     186.556     -14.937
  N      676.328     186.334     -13.623
  O      673.618     182.734     -16.977
  O      671.715     181.815     -15.517
  H      673.104     189.286     -13.226
  H      674.015     181.871     -16.748
  H      680.473     183.985     -12.201
  H      675.967     187.031     -15.635
  H      675.349     186.982     -11.913
  H      674.899     188.417     -14.350
  H      679.661     183.600     -10.041
  H      673.619     186.600     -15.323
  H      678.115     184.250      -9.597
  H      672.357     186.281     -12.534
  H      671.909     184.026     -13.141
  H      671.319     184.988     -14.494
  P      671.602     188.030     -16.119
  C      670.719     190.450     -15.839
  O      670.400     189.083     -16.046
  O      670.879     186.647     -16.484
  O      672.712     188.351     -17.069
  H      670.952     186.466     -17.446
  H      671.571     190.758     -16.436
  H      670.929     190.611     -14.769
  H      669.844     191.066     -16.117
  H      670.006     184.126     -18.320
  H      669.905     182.748     -17.250
  H      671.135     182.803     -18.490

 3  4  5  6  7  8  9  10  11  12  23  26  30  31  33  0
 6-311+G(2d,p)
 ****
 35  36  37  38 0
 6-311+G(2d,p)
 ****
 1  2  13  14  15  16  17  18  19  20  21  22  24  25  27  28  29 0
 3-21G
 ****
 32  34  39  40  41  42  43  44  45  46  47  48  49 0
 3-21G
 ****


