%nproc=1
%NoSave
%Mem=1900MB
#P OB98/GEN NMR

erre ene a

0 1
  C     -474.578      51.226     157.501
  O     -476.001      51.340     157.581
  P     -476.671      51.540     159.028
  C     -476.542      49.023     159.641
  O     -476.160      50.358     159.989
  C     -475.407      48.036     159.964
  O     -474.919      48.307     161.304
  C     -475.822      46.559     159.956
  O     -475.732      45.840     158.732
  C     -474.765      45.958     160.887
  O     -473.556      45.695     160.152
  C     -474.511      47.057     161.912
  N     -474.005      46.404     166.965
  C     -473.090      46.592     165.985
  N     -473.315      46.753     164.665
  C     -474.621      46.732     164.388
  C     -475.666      46.563     165.291
  C     -475.320      46.392     166.633
  N     -476.241      46.192     167.639
  N     -476.892      46.594     164.638
  C     -476.577      46.766     163.362
  N     -475.232      46.862     163.156
  O     -478.143      51.786     159.036
  O     -475.875      52.818     159.607
  H     -472.935      45.286     160.785
  H     -476.495      53.369     160.111
  H     -472.054      46.605     166.296
  H     -477.302      46.804     162.553
  H     -473.448      47.154     162.173
  H     -475.084      44.997     161.312
  H     -476.810      46.432     160.394
  H     -474.574      48.197     159.258
  H     -476.770      48.985     158.578
  H     -475.900      46.036     168.576
  H     -477.219      46.125     167.402
  H     -477.461      48.802     160.179
  P     -477.046      45.522     157.861
  C     -476.900      42.949     158.372
  O     -477.647      44.157     158.454
  O     -476.832      45.513     156.375
  O     -478.081      46.623     158.374
  H     -478.381      46.504     159.298
  H     -477.370      42.209     159.021
  H     -475.873      43.107     158.708
  H     -476.912      42.590     157.343
  H     -474.287      51.098     156.479
  H     -474.255      50.381     158.072
  H     -474.127      52.114     157.892

 3  4  5  6  7  8  9  10  11  12  22  25  29  30  31  32 0
 6-311+G(2d,p)
 ****
 33  36  37 0
 6-311+G(2d,p)
 ****
 1  2  13  14  15  16  17  18  19  20  21  23  24  26 0
 3-21G
 ****
 27  28  34  35  38  39  40  41  42  43  44  45  46  47  48 0
 3-21G
 ****


