%nproc=1
%NoSave
%Mem=1900MB
#P OB98/GEN NMR

erre ene a

0 1
  C      106.831    -539.431     934.027
  O      107.849    -538.465     933.726
  P      109.363    -538.973     933.678
  C      109.163    -539.427     931.120
  O      109.548    -539.921     932.400
  C      110.403    -539.092     930.289
  O      111.172    -538.041     930.903
  C      111.359    -540.260     930.146
  O      110.894    -541.179     929.178
  C      112.662    -539.562     929.760
  O      112.780    -539.431     928.331
  C      112.526    -538.172     930.427
  N      113.487    -537.975     931.500
  C      114.418    -536.950     931.303
  O      114.405    -536.288     930.258
  N      115.354    -536.716     932.289
  C      115.372    -537.450     933.353
  N      116.322    -537.180     934.284
  C      114.424    -538.568     933.583
  C      113.517    -538.765     932.624
  O      109.445    -539.997     934.911
  O      110.380    -537.882     933.808
  H      112.626    -540.325     927.970
  H      110.337    -539.981     935.303
  H      114.483    -539.164     934.481
  H      112.785    -539.564     932.708
  H      112.677    -537.376     929.688
  H      113.537    -540.126     930.090
  H      111.488    -540.759     931.121
  H      110.076    -538.751     929.293
  H      116.956    -536.413     934.090
  H      108.537    -538.539     931.229
  H      116.431    -537.701     935.146
  H      108.542    -540.178     930.617
  P      111.609    -542.610     929.090
  C      109.234    -543.588     929.102
  O      110.538    -543.652     929.669
  O      112.664    -542.525     930.305
  O      112.265    -542.967     927.804
  H      113.249    -543.310     930.299
  H      108.675    -544.472     929.427
  H      109.291    -543.575     928.008
  H      108.717    -542.690     929.460
  H      105.874    -538.953     934.025
  H      107.016    -539.855     934.992
  H      106.844    -540.205     933.289

 3  4  5  6  7  8  9  10  11  12  13  21  23  27  28  29  30  32 0
 6-311+G(2d,p)
 ****
 34  35 0
 6-311+G(2d,p)
 ****
 1  2  14  15  16  17  18  19  20  22  24  25  26 0
 3-21G
 ****
 31  33  36  37  38  39  40  41  42  43  44  45  46 0
 3-21G
 ****


