%nproc=1
%NoSave
%Mem=1900MB
#P OB98/GEN NMR

erre ene a

0 1
  C     1310.708     -18.517    -265.691
  O     1309.909     -19.020    -266.750
  P     1308.854     -18.077    -267.511
  C     1307.705     -16.020    -266.479
  O     1307.979     -17.412    -266.347
  C     1307.626     -15.369    -265.102
  O     1308.948     -15.408    -264.506
  C     1307.214     -13.900    -265.082
  O     1305.820     -13.668    -265.107
  C     1307.774     -13.471    -263.741
  O     1306.890     -13.899    -262.689
  C     1309.088     -14.229    -263.655
  N     1312.909     -11.169    -262.182
  C     1311.965     -11.833    -261.489
  N     1310.967     -12.605    -261.954
  C     1311.033     -12.713    -263.292
  C     1311.943     -12.100    -264.139
  C     1312.931     -11.294    -263.534
  N     1313.906     -10.636    -264.249
  N     1311.678     -12.434    -265.451
  C     1310.654     -13.236    -265.399
  N     1310.212     -13.447    -264.113
  O     1308.080     -18.756    -268.590
  O     1309.739     -16.848    -268.052
  H     1306.046     -13.430    -262.820
  H     1309.240     -16.367    -268.739
  H     1312.009     -11.701    -260.408
  H     1310.168     -13.693    -266.261
  H     1309.311     -14.596    -262.647
  H     1307.873     -12.377    -263.630
  H     1307.732     -13.321    -265.884
  H     1306.954     -15.969    -264.473
  H     1306.736     -15.927    -266.972
  H     1314.644     -10.180    -263.719
  H     1314.008     -10.863    -265.228
  H     1308.466     -15.544    -267.098
  P     1305.322     -12.207    -265.567
  C     1305.932      -9.801    -264.734
  O     1305.945     -11.188    -264.496
  O     1303.852     -12.076    -265.779
  O     1306.182     -11.925    -266.886
  H     1307.142     -11.832    -266.728
  H     1306.246      -9.277    -263.815
  H     1304.930      -9.466    -264.971
  H     1306.609      -9.552    -265.539
  H     1311.340     -19.296    -265.320
  H     1310.075     -18.165    -264.903
  H     1311.311     -17.710    -266.051

 3  4  5  6  7  8  9  10  11  12  22  25  29  30  31  32 0
 6-311+G(2d,p)
 ****
 33  36  37 0
 6-311+G(2d,p)
 ****
 1  2  13  14  15  16  17  18  19  20  21  23  24  26 0
 3-21G
 ****
 27  28  34  35  38  39  40  41  42  43  44  45  46  47  48 0
 3-21G
 ****


