%nproc=1
%NoSave
%Mem=1900MB
#P OB98/GEN NMR

erre ene a

0 1
  C      -23.687     301.383     -99.043
  O      -24.945     300.717     -99.207
  P      -25.044     299.157     -99.577
  C      -25.860     299.778    -101.938
  O      -26.087     298.978    -100.782
  C      -26.631     299.251    -103.153
  O      -26.180     297.930    -103.510
  C      -28.139     299.139    -102.946
  O      -28.755     300.406    -103.068
  C      -28.515     298.133    -104.029
  O      -28.628     298.787    -105.305
  C      -27.304     297.190    -104.019
  N      -29.239     292.455    -104.047
  C      -29.139     293.396    -105.011
  N      -28.615     294.637    -104.925
  C      -28.136     294.862    -103.690
  C      -28.172     294.002    -102.604
  C      -28.757     292.741    -102.815
  N      -28.871     291.791    -101.829
  N      -27.607     294.592    -101.494
  C      -27.222     295.784    -101.906
  N      -27.520     295.993    -103.224
  O      -25.301     298.266     -98.405
  O      -23.633     298.810    -100.252
  H      -28.740     298.093    -105.980
  H      -23.423     297.869    -100.107
  H      -29.537     293.115    -105.984
  H      -26.724     296.523    -101.293
  H      -27.035     296.867    -105.032
  H      -29.468     297.634    -103.832
  H      -28.351     298.707    -101.962
  H      -26.411     299.911    -104.002
  H      -24.787     299.776    -102.155
  H      -29.334     290.925    -102.051
  H      -28.557     292.015    -100.895
  H      -26.173     300.805    -101.717
  P      -29.111     301.256    -101.758
  C      -30.804     299.414    -101.189
  O      -30.578     300.807    -101.289
  O      -28.902     302.728    -101.867
  O      -28.172     300.618    -100.626
  H      -27.956     301.302     -99.966
  H      -30.997     299.006    -102.186
  H      -31.681     299.245    -100.559
  H      -29.943     298.907    -100.746
  H      -23.857     302.411     -98.800
  H      -23.128     301.319     -99.953
  H      -23.137     300.916     -98.253

 3  4  5  6  7  8  9  10  11  12  22  25  29  30  31  32 0
 6-311+G(2d,p)
 ****
 33  36  37 0
 6-311+G(2d,p)
 ****
 1  2  13  14  15  16  17  18  19  20  21  23  24  26 0
 3-21G
 ****
 27  28  34  35  38  39  40  41  42  43  44  45  46  47  48 0
 3-21G
 ****


