%nproc=1
%NoSave
%Mem=1900MB
#P OB98/GEN NMR

erre ene a

0 1
  C     -134.866    -167.735     -28.627
  O     -134.197    -166.668     -29.264
  H     -134.446    -168.678     -28.988
  H     -135.930    -167.712     -28.873
  H     -134.732    -167.688     -27.543
  P     -134.493    -165.171     -28.780
  C     -132.286    -163.985     -29.400
  O     -133.084    -164.532     -28.363
  C     -130.903    -163.588     -28.871
  O     -131.016    -162.295     -28.201
  C     -130.310    -164.577     -27.848
  O     -128.882    -164.513     -27.982
  C     -130.772    -163.950     -26.544
  O     -130.138    -164.507     -25.421
  C     -130.497    -162.474     -26.866
  N     -131.095    -161.513     -25.948
  C     -130.324    -161.078     -24.874
  O     -129.172    -161.443     -24.647
  N     -130.930    -160.182     -24.033
  C     -132.192    -159.680     -24.165
  O     -132.670    -158.855     -23.398
  C     -132.959    -160.184     -25.314
  C     -132.384    -161.058     -26.142
  O     -135.580    -165.019     -27.769
  O     -134.843    -164.397     -30.139
  H     -135.809    -164.286     -30.213
  H     -130.424    -165.441     -25.323
  H     -130.385    -159.852     -23.253
  H     -133.968    -159.815     -25.442
  H     -132.923    -161.438     -27.004
  H     -129.418    -162.299     -26.915
  H     -131.840    -164.127     -26.404
  H     -130.646    -165.605     -28.000
  H     -130.226    -163.446     -29.722
  H     -132.797    -163.100     -29.795
  H     -132.183    -164.724     -30.202
  P     -128.043    -165.477     -28.953
  C     -127.444    -163.588     -30.619
  O     -128.078    -164.849     -30.431
  O     -128.466    -166.908     -28.900
  O     -126.517    -165.309     -28.499
  H     -126.020    -166.116     -28.724
  H     -127.541    -163.289     -31.642
  H     -126.407    -163.669     -30.368
  H     -127.907    -162.858     -29.988

 6  7  8  9  10  11  12  13  14  15  16  27  31  32  33  34  35 0
 6-311+G(2d,p)
 ****
 36  37 0
 6-311+G(2d,p)
 ****
 1  2  3  4  5  17  18  19  20  21  22  23  24  25 0
 3-21G
 ****
 26  28  29  30  38  39  40  41  42  43  44  45 0
 3-21G
 ****


