%nproc=1
%NoSave
%Mem=1900MB
#P OB98/GEN NMR

erre ene a

0 1
  C      219.733     791.740     393.079
  O      218.352     791.579     392.805
  H      220.303     791.345     392.234
  H      219.996     791.180     393.978
  H      219.975     792.796     393.210
  P      217.340     792.137     393.920
  C      217.842     790.181     395.562
  O      217.870     791.575     395.326
  C      218.367     789.874     396.971
  O      217.671     790.727     397.933
  C      218.136     788.418     397.419
  O      219.190     788.038     398.327
  C      216.833     788.541     398.196
  O      216.624     787.396     398.992
  C      217.080     789.854     398.919
  N      213.156     789.095     402.083
  C      214.248     788.342     401.805
  N      215.255     788.623     400.946
  C      215.061     789.828     400.385
  C      214.006     790.690     400.564
  C      213.009     790.278     401.461
  N      211.880     791.019     401.732
  N      214.158     791.826     399.767
  C      215.288     791.634     399.131
  N      215.873     790.435     399.464
  O      216.004     791.287     393.658
  O      217.084     793.605     393.885
  H      216.809     786.578     398.491
  H      215.416     791.773     393.051
  H      214.323     787.405     402.330
  H      215.730     792.315     398.407
  H      217.798     789.753     399.739
  H      215.975     788.617     397.515
  H      218.094     787.708     396.579
  H      219.436     790.137     397.024
  H      218.468     789.684     394.820
  H      216.819     789.813     395.474
  H      211.201     790.638     402.365
  H      211.737     791.894     401.248
  P      220.051     786.729     398.007
  C      218.781     784.721     399.077
  O      219.105     785.438     397.891
  O      220.811     786.481     399.400
  O      221.053     786.871     396.898
  H      221.747     786.289     399.240
  H      218.148     783.894     398.832
  H      218.272     785.370     399.759
  H      219.679     784.360     399.532

 6  7  8  9  10  11  12  13  14  15  25  28  32  33  34  35 0
 6-311+G(2d,p)
 ****
 36  37  40 0
 6-311+G(2d,p)
 ****
 1  2  3  4  5  16  17  18  19  20  21  22  23  24 0
 3-21G
 ****
 26  27  29  30  31  38  39 41  42  43  44  45  46  47  48 0
 3-21G
 ****


