%nproc=1
%NoSave
%Mem=1900MB
#P OB98/GEN NMR

erre ene a

0 1
  C      171.965     -38.118      -3.204
  O      172.070     -39.451      -2.746
  H      171.038     -38.014      -3.772
  H      172.810     -37.877      -3.856
  H      171.940     -37.427      -2.357
  P      173.367     -39.804      -1.871
  C      173.225     -38.064       0.066
  O      173.005     -39.400      -0.362
  C      173.798     -38.045       1.488
  O      174.328     -36.714       1.760
  C      172.757     -38.341       2.581
  O      173.443     -38.946       3.690
  C      172.307     -36.941       2.964
  O      171.589     -36.955       4.176
  C      173.655     -36.228       2.944
  N      171.299     -32.130       4.890
  C      171.227     -33.441       5.202
  N      171.893     -34.472       4.648
  C      172.726     -34.039       3.686
  C      172.915     -32.735       3.264
  C      172.151     -31.747       3.909
  N      172.218     -30.411       3.587
  N      173.853     -32.682       2.247
  C      174.221     -33.934       2.063
  N      173.562     -34.787       2.903
  O      174.427     -38.694      -2.320
  O      173.899     -41.188      -2.040
  H      170.957     -37.705       4.198
  H      175.005     -39.051      -3.021
  H      170.537     -33.696       6.003
  H      174.947     -34.276       1.335
  H      174.272     -36.497       3.809
  H      171.634     -36.528       2.206
  H      171.952     -38.999       2.246
  H      174.644     -38.739       1.542
  H      172.269     -37.531       0.043
  H      173.928     -37.574      -0.615
  H      171.624     -29.770       4.087
  H      172.835     -30.115       2.846
  P      173.401     -40.545       3.856
  C      175.701     -41.226       2.813
  O      174.906     -41.088       3.980
  O      172.998     -41.023       2.379
  O      172.431     -41.067       4.864
  H      172.521     -41.873       2.429
  H      176.668     -41.598       3.082
  H      175.805     -40.273       2.337
  H      175.230     -41.911       2.140

 6  7  8  9  10  11  12  13  14  15  25  28  32  33  34  35 0
 6-311+G(2d,p)
 ****
 36  37  40 0
 6-311+G(2d,p)
 ****
 1  2  3  4  5  16  17  18  19  20  21  22  23  24 0
 3-21G
 ****
 26  27  29  30  31  38  39 41  42  43  44  45  46  47  48 0
 3-21G
 ****


