%nproc=1
%NoSave
%Mem=1900MB
#P OB98/GEN NMR

erre ene a

0 1
  C       76.848     -26.300     -43.438
  O       77.376     -25.839     -42.207
  P       78.965     -25.617     -42.119
  C       79.503     -27.990     -41.210
  O       79.635     -27.066     -42.284
  C       80.814     -28.736     -40.954
  O       80.627     -29.644     -39.842
  C       81.313     -29.548     -42.150
  O       82.739     -29.462     -42.172
  C       80.912     -30.969     -41.805
  O       81.733     -31.926     -42.472
  C       81.045     -30.955     -40.274
  N       80.253     -32.004     -39.641
  C       80.766     -33.303     -39.698
  O       81.798     -33.531     -40.329
  N       80.073     -34.316     -39.085
  C       78.915     -34.072     -38.556
  N       78.268     -35.107     -37.958
  C       78.281     -32.739     -38.583
  C       79.007     -31.759     -39.116
  O       79.194     -25.278     -40.574
  O       79.494     -24.549     -43.019
  H       82.655     -31.812     -42.152
  H       79.943     -24.662     -40.460
  H       77.297     -32.597     -38.161
  H       78.634     -30.745     -39.159
  H       82.094     -31.083     -39.977
  H       79.869     -31.144     -42.097
  H       80.907     -29.196     -43.103
  H       81.570     -28.002     -40.651
  H       78.716     -36.014     -37.965
  H       78.736     -28.726     -41.467
  H       77.361     -35.011     -37.520
  H       79.178     -27.458     -40.312
  P       83.496     -29.989     -43.484
  C       84.498     -31.852     -42.031
  O       83.774     -31.543     -43.205
  O       84.959     -29.361     -43.281
  O       82.935     -29.630     -44.818
  H       85.511     -29.559     -44.059
  H       84.496     -32.937     -41.894
  H       84.032     -31.386     -41.159
  H       85.533     -31.513     -42.131
  H       75.786     -26.403     -43.355
  H       77.280     -27.249     -43.678
  H       77.079     -25.597     -44.211

 3  4  5  6  7  8  9  10  11  12  13  21  23  27  28  29  30  32 0
 6-311+G(2d,p)
 ****
 34  35 0
 6-311+G(2d,p)
 ****
 1  2  14  15  16  17  18  19  20  22  24  25  26 0
 3-21G
 ****
 31  33  36  37  38  39  40  41  42  43  44  45  46 0
 3-21G
 ****


