%nproc=1
%NoSave
%Mem=1900MB
#P OB98/GEN NMR

erre ene a

0 1
  C      -83.763      28.632      35.371
  O      -84.165      27.912      34.228
  H      -84.005      29.688      35.218
  H      -82.686      28.544      35.526
  H      -84.299      28.276      36.255
  P      -83.757      26.363      34.101
  C      -81.611      26.453      32.696
  O      -83.019      26.247      32.671
  C      -80.938      25.875      31.450
  O      -81.165      24.443      31.394
  C      -81.450      26.476      30.136
  O      -80.339      26.809      29.300
  C      -82.259      25.347      29.513
  O      -82.361      25.474      28.099
  C      -81.497      24.122      30.030
  N      -82.271      22.889      29.937
  C      -81.763      21.895      29.096
  O      -80.732      22.095      28.450
  N      -82.450      20.715      28.973
  C      -83.576      20.558      29.594
  N      -84.215      19.370      29.423
  C      -84.174      21.599      30.456
  C      -83.473      22.724      30.587
  O      -84.880      25.403      34.306
  O      -82.556      26.176      35.140
  H      -82.821      24.679      27.748
  H      -82.458      25.217      35.360
  H      -85.122      21.426      30.945
  H      -83.830      23.539      31.207
  H      -80.559      23.984      29.474
  H      -83.275      25.354      29.929
  H      -82.055      27.369      30.275
  H      -79.855      26.008      31.552
  H      -83.771      18.684      28.826
  H      -81.205      25.987      33.600
  H      -85.100      19.141      29.853
  H      -81.425      27.533      32.734
  P      -80.045      28.377      29.107
  C      -79.873      28.243      26.525
  O      -79.216      28.560      27.744
  O      -78.973      28.689      30.254
  O      -81.261      29.234      29.235
  H      -79.410      29.111      31.017
  H      -79.205      28.411      25.706
  H      -80.737      28.864      26.414
  H      -80.171      27.215      26.537

 6  7  8  9  10  11  12  13  14  15  16  26  30  31  32  33  35 0
 6-311+G(2d,p)
 ****
 37  38 0
 6-311+G(2d,p)
 ****
 1  2  3  4  5  17  18  19  20  21  22  23  24  25 0
 3-21G
 ****
 27  28  29  34  36  39  40  41  42  43  44  45  46 0
 3-21G
 ****


