%nproc=1
%NoSave
%Mem=1900MB
#P OB98/GEN NMR

erre ene a

0 1
  C     -124.535      76.476     155.306
  O     -124.500      75.288     156.075
  H     -124.635      77.337     155.970
  H     -123.597      76.565     154.755
  H     -125.363      76.453     154.594
  P     -125.879      74.795     156.730
  C     -125.938      72.813     155.057
  O     -126.628      73.926     155.606
  C     -126.919      71.872     154.354
  O     -127.745      71.228     155.367
  C     -127.853      72.562     153.352
  O     -128.026      71.698     152.225
  C     -129.167      72.654     154.108
  O     -130.299      72.721     153.243
  C     -129.115      71.387     154.952
  N     -133.713      70.089     156.698
  C     -132.984      69.637     155.653
  N     -131.739      70.003     155.289
  C     -131.220      70.880     156.170
  C     -131.843      71.427     157.281
  C     -133.161      71.006     157.526
  N     -133.941      71.507     158.543
  N     -131.006      72.337     157.897
  C     -129.916      72.359     157.160
  N     -130.000      71.495     156.100
  O     -126.735      76.152     156.788
  O     -125.764      74.153     158.071
  H     -130.302      71.924     152.673
  H     -126.542      76.623     157.621
  H     -133.466      68.894     155.023
  H     -129.057      72.995     157.322
  H     -129.413      70.491     154.392
  H     -129.164      73.552     154.740
  H     -127.495      73.542     153.015
  H     -126.341      71.076     153.865
  H     -125.440      72.271     155.865
  H     -134.907      71.227     158.579
  H     -133.581      72.271     159.101
  H     -125.183      73.168     154.349
  P     -127.071      71.935     150.961
  C     -126.033      69.549     151.116
  O     -125.806      70.957     151.080
  O     -126.443      73.383     151.243
  O     -127.779      71.892     149.645
  H     -126.283      73.851     150.399
  H     -125.096      69.039     151.196
  H     -126.529      69.245     150.218
  H     -126.644      69.308     151.960

 6  7  8  9  10  11  12  13  14  15  25  28  32  33  34  35 0
 6-311+G(2d,p)
 ****
 36  39  40 0
 6-311+G(2d,p)
 ****
 1  2  3  4  5  16  17  18  19  20  21  22  23  24 0
 3-21G
 ****
 26  27  29  30  31  37  38  41  42  43  44  45  46  47 0
 3-21G
 ****
 48 0
 3-21G
 ****


