%nproc=1
%NoSave
%Mem=1900MB
#P OB98/GEN NMR

erre ene a

0 1
  C      -15.513    -396.192     197.866
  O      -14.137    -395.881     198.089
  P      -13.015    -396.585     197.188
  C      -12.545    -398.652     198.661
  O      -13.076    -398.180     197.432
  C      -12.078    -400.110     198.586
  O      -11.452    -400.524     199.823
  C      -13.199    -401.116     198.280
  O      -12.631    -402.151     197.454
  C      -13.524    -401.663     199.663
  O      -14.230    -402.902     199.607
  C      -12.119    -401.721     200.270
  N      -12.149    -401.814     201.738
  C      -12.183    -403.104     202.289
  O      -12.301    -404.081     201.550
  N      -12.125    -403.221     203.650
  C      -12.182    -402.160     204.389
  N      -12.091    -402.319     205.743
  C      -12.310    -400.797     203.842
  C      -12.266    -400.703     202.518
  O      -11.645    -395.995     197.285
  O      -13.603    -396.435     195.708
  H      -14.180    -403.334     200.485
  H      -12.860    -396.311     195.085
  H      -12.441    -399.948     204.503
  H      -12.356    -399.750     202.014
  H      -11.552    -402.580     199.881
  H      -14.153    -400.942     200.204
  H      -14.057    -400.675     197.765
  H      -11.315    -400.165     197.796
  H      -12.023    -403.267     206.110
  H      -13.313    -398.565     199.443
  H      -12.078    -401.537     206.388
  H      -11.730    -397.986     198.974
  P      -13.422    -402.600     196.132
  C      -14.388    -404.828     197.072
  O      -14.656    -403.529     196.580
  O      -12.417    -403.679     195.500
  O      -13.711    -401.532     195.130
  H      -12.578    -403.736     194.536
  H      -15.281    -405.206     197.592
  H      -13.553    -404.839     197.768
  H      -14.157    -405.502     196.234
  H      -16.120    -395.637     198.551
  H      -15.671    -397.239     198.018
  H      -15.779    -395.933     196.863

 3  4  5  6  7  8  9  10  11  12  13  23  27  28  29  30  32 0
 6-311+G(2d,p)
 ****
 34  35 0
 6-311+G(2d,p)
 ****
 1  2  14  15  16  17  18  19  20  21  22  24  25  26 0
 3-21G
 ****
 31  33  36  37  38  39  40  41  42  43  44  45  46 0
 3-21G
 ****


