%nproc=1
%NoSave
%Mem=1900MB
#P OB98/GEN NMR

erre ene a

0 1
  C      384.475     425.257     245.617
  O      385.433     426.036     246.314
  P      384.885     427.120     247.368
  C      384.611     428.871     245.456
  O      385.182     428.564     246.727
  C      384.340     430.368     245.353
  O      383.307     430.764     246.277
  C      385.541     431.246     245.701
  O      386.449     431.373     244.613
  C      384.858     432.582     245.969
  O      384.555     433.245     244.731
  C      383.566     432.136     246.675
  N      384.054     435.272     250.617
  C      383.798     435.556     249.289
  N      383.718     436.859     248.955
  N      383.631     434.639     248.369
  C      383.737     433.371     248.845
  C      383.986     432.962     250.141
  C      384.180     433.985     251.136
  O      384.464     433.806     252.323
  N      384.020     431.603     250.238
  C      383.792     431.175     249.011
  N      383.665     432.210     248.124
  O      385.937     427.030     248.567
  O      383.494     426.883     247.829
  H      385.325     433.102     244.145
  H      385.569     427.432     249.370
  H      384.174     436.013     251.292
  H      383.736     430.135     248.706
  H      382.706     432.738     246.359
  H      385.485     433.259     246.553
  H      383.901     437.610     249.603
  H      386.039     430.899     246.608
  H      383.597     437.103     247.980
  H      383.999     430.575     244.332
  H      383.678     428.318     245.341
  H      385.302     428.551     244.671
  P      387.787     430.480     244.684
  C      388.945     432.008     246.440
  O      388.944     431.493     245.123
  O      388.098     430.168     243.141
  O      387.660     429.233     245.500
  H      388.604     429.348     243.061
  H      389.920     432.455     246.635
  H      388.768     431.208     247.167
  H      388.181     432.782     246.539
  H      384.977     424.583     244.955
  H      383.834     425.901     245.052
  H      383.891     424.699     246.318

 3  4  5  6  7  8  9  10  11  12  23  26  30  31 0
 6-311+G(2d,p)
 ****
 33  35  36  37  38 0
 6-311+G(2d,p)
 ****
 1  2  13  14  15  16  17  18  19  20  21  22  24  25 0
 3-21G
 ****
 27  28  29  32  34  39  40  41  42  43  44  45  46  47  48  49 0
 3-21G
 ****


