%nproc=1
%NoSave
%Mem=1900MB
#P OB98/GEN NMR

erre ene a

0 1
  C      525.087     313.101    -378.041
  O      524.372     311.928    -377.651
  P      524.340     310.671    -378.634
  C      521.767     310.603    -378.541
  O      522.977     309.860    -378.404
  C      520.660     310.016    -377.650
  O      520.277     308.692    -378.129
  C      521.101     309.853    -376.187
  O      519.986     310.047    -375.303
  C      521.500     308.387    -376.113
  O      521.482     307.910    -374.768
  C      520.450     307.759    -377.036
  N      520.311     302.711    -376.168
  C      519.747     303.753    -375.509
  N      519.811     305.067    -375.812
  C      520.538     305.269    -376.930
  C      521.158     304.304    -377.717
  C      521.037     302.969    -377.284
  N      521.626     301.918    -377.946
  N      521.814     304.887    -378.786
  C      521.620     306.184    -378.623
  N      520.827     306.456    -377.543
  O      525.575     309.825    -378.645
  O      524.105     311.345    -380.070
  H      520.589     308.064    -374.409
  H      524.672     310.909    -380.737
  H      519.179     303.493    -374.622
  H      522.044     306.959    -379.250
  H      519.478     307.653    -376.536
  H      522.507     308.258    -376.512
  H      521.919     310.520    -375.888
  H      519.770     310.645    -377.719
  H      521.449     310.600    -379.583
  H      521.581     301.005    -377.494
  H      522.286     302.109    -378.684
  H      521.964     311.649    -378.288
  P      519.776     311.550    -374.753
  C      520.618     310.957    -372.348
  O      519.563     311.414    -373.169
  O      518.720     312.312    -375.498
  O      521.244     312.174    -374.912
  H      521.958     311.634    -374.532
  H      520.318     311.060    -371.305
  H      521.522     311.546    -372.515
  H      520.822     309.904    -372.551
  H      525.006     313.840    -377.272
  H      524.673     313.485    -378.950
  H      526.117     312.856    -378.193

 3  4  5  6  7  8  9  10  11  12  22  25  29  30  31  32 0
 6-311+G(2d,p)
 ****
 33  36  37 0
 6-311+G(2d,p)
 ****
 1  2  13  14  15  16  17  18  19  20  21  23  24  26 0
 3-21G
 ****
 27  28  34  35  38  39  40  41  42  43  44  45  46  47  48 0
 3-21G
 ****


