%nproc=1
%NoSave
%Mem=1900MB
#P OB98/GEN NMR

erre ene a

0 1
  C      -17.198     284.166     540.739
  O      -17.933     283.316     541.598
  H      -16.272     284.484     541.226
  H      -16.946     283.613     539.826
  H      -17.800     285.038     540.471
  P      -18.369     283.920     543.017
  C      -20.934     283.651     542.732
  O      -19.838     284.555     542.827
  C      -21.462     283.613     541.300
  O      -20.387     283.182     540.428
  C      -22.661     282.677     541.073
  O      -23.777     283.403     540.555
  C      -22.195     281.699     540.013
  O      -23.186     281.385     539.047
  C      -21.002     282.411     539.383
  N      -19.912     279.614     535.261
  C      -20.659     280.727     535.416
  N      -20.826     281.489     536.517
  C      -20.085     281.007     537.535
  C      -19.252     279.895     537.524
  C      -19.193     279.175     536.327
  N      -18.469     278.007     536.185
  N      -18.664     279.715     538.771
  C      -19.170     280.666     539.532
  N      -20.046     281.463     538.829
  O      -17.423     285.209     543.172
  O      -18.229     282.992     544.177
  H      -23.386     282.209     538.572
  H      -17.018     285.215     544.060
  H      -21.210     281.048     534.530
  H      -18.980     280.804     540.586
  H      -21.298     283.094     538.585
  H      -21.884     280.764     540.506
  H      -22.963     282.149     541.994
  H      -21.724     284.644     541.001
  H      -21.742     283.988     543.397
  H      -18.575     277.490     535.326
  H      -18.020     277.610     537.005
  H      -20.609     282.657     543.052
  P      -25.022     283.639     541.547
  C      -25.586     286.180     541.510
  O      -24.891     285.128     542.150
  O      -24.657     282.704     542.798
  O      -26.344     283.288     540.953
  H      -25.473     282.417     543.255
  H      -25.398     287.098     542.027
  H      -26.636     285.973     541.521
  H      -25.250     286.265     540.498

 6  7  8  9  10  11  12  13  14  15  25  28  32  33  34  35 0
 6-311+G(2d,p)
 ****
 36  39  40 0
 6-311+G(2d,p)
 ****
 1  2  3  4  5  16  17  18  19  20  21  22  23  24 0
 3-21G
 ****
 26  27  29  30  31  37  38  41  42  43  44  45  46  47  48 0
 3-21G
 ****


