%nproc=1
%NoSave
%Mem=1900MB
#P OB98/GEN NMR

erre ene a

0 1
  C     -825.803     636.069     399.558
  O     -826.995     636.682     399.937
  P     -827.449     636.563     401.486
  C     -827.965     639.135     401.680
  O     -827.187     638.016     402.146
  C     -828.846     639.636     402.803
  O     -828.101     639.872     404.020
  C     -829.546     640.988     402.503
  O     -830.601     640.810     401.589
  C     -829.950     641.406     403.903
  O     -831.144     640.708     404.297
  C     -828.757     640.935     404.739
  N     -826.639     643.906     408.338
  C     -827.598     643.004     408.411
  N     -828.133     642.257     407.412
  C     -827.544     642.549     406.236
  C     -826.550     643.503     406.005
  C     -826.107     644.186     407.119
  N     -825.101     645.170     407.067
  N     -826.216     643.539     404.666
  C     -826.954     642.641     404.105
  N     -827.786     642.002     404.990
  O     -826.277     635.662     402.117
  O     -828.802     635.996     401.710
  H     -831.854     640.979     403.684
  H     -826.624     635.086     402.830
  H     -828.034     642.790     409.402
  H     -826.980     642.379     403.050
  H     -829.053     640.521     405.718
  H     -830.162     642.481     403.983
  H     -828.809     641.716     402.078
  H     -829.626     638.864     402.994
  H     -828.573     638.814     400.832
  H     -824.941     645.714     407.864
  H     -824.790     645.461     406.139
  H     -827.266     639.923     401.339
  P     -830.479     641.574     400.154
  C     -829.830     639.518     398.750
  O     -829.391     640.712     399.339
  O     -829.681     642.890     400.568
  O     -831.783     641.797     399.444
  H     -828.891     642.684     401.115
  H     -829.009     639.069     398.194
  H     -830.649     639.735     398.074
  H     -830.185     638.818     399.514
  H     -825.635     636.231     398.514
  H     -825.865     635.018     399.750
  H     -824.993     636.487     400.119

 3  4  5  6  7  8  9  10  11  12  22  25  29  30  31  32 0
 6-311+G(2d,p)
 ****
 33  36  37 0
 6-311+G(2d,p)
 ****
 1  2  13  14  15  16  17  18  19  20  21  23  24  26 0
 3-21G
 ****
 27  28  34  35  38  39  40  41  42  43  44  45  46  47  48 0
 3-21G
 ****


