%nproc=1
%NoSave
%Mem=1900MB
#P OB98/GEN NMR

erre ene a

0 1
  C      -82.627    -152.086     -53.636
  O      -83.818    -152.699     -53.189
  P      -84.109    -154.253     -53.446
  C      -84.903    -155.734     -55.381
  O      -84.412    -154.450     -55.008
  C      -84.751    -155.974     -56.885
  O      -83.382    -155.663     -57.285
  C      -85.056    -157.411     -57.331
  O      -85.722    -157.332     -58.590
  C      -83.669    -158.018     -57.494
  O      -83.680    -159.152     -58.350
  C      -82.887    -156.806     -58.008
  N      -81.448    -156.960     -57.830
  C      -80.641    -156.622     -58.916
  O      -81.149    -156.335     -60.001
  N      -79.276    -156.621     -58.742
  C      -78.766    -157.108     -57.654
  N      -77.418    -157.027     -57.496
  C      -79.596    -157.706     -56.578
  C      -80.911    -157.565     -56.713
  O      -85.118    -154.870     -52.533
  O      -82.670    -154.949     -53.265
  H      -82.753    -155.679     -52.620
  H      -82.757    -159.443     -58.496
  H      -79.124    -158.215     -55.755
  H      -81.599    -157.950     -55.970
  H      -83.090    -156.639     -59.073
  H      -83.289    -158.336     -56.509
  H      -85.687    -157.949     -56.615
  H      -85.408    -155.265     -57.415
  H      -76.891    -156.572     -58.228
  H      -85.962    -155.776     -55.124
  H      -76.980    -157.080     -56.576
  H      -84.386    -156.513     -54.816
  P      -86.415    -158.662     -59.173
  C      -85.713    -160.560     -60.800
  O      -85.301    -159.495     -59.965
  O      -87.306    -158.061     -60.374
  O      -87.295    -159.426     -58.228
  H      -88.056    -158.668     -60.551
  H      -84.824    -161.053     -61.199
  H      -86.312    -160.179     -61.643
  H      -86.296    -161.295     -60.235
  H      -82.634    -151.052     -53.363
  H      -82.559    -152.173     -54.700
  H      -81.786    -152.569     -53.184

 3  4  5  6  7  8  9  10  11  12  13  24  27  28  29  30  32 0
 6-311+G(2d,p)
 ****
 34  35 0
 6-311+G(2d,p)
 ****
 1  2  14  15  16  17  18  19  20  21  22  23  25  26 0
 3-21G
 ****
 31  33  36  37  38  39  40  41  42  43  44  45  46 0
 3-21G
 ****


