%nproc=1
%NoSave
%Mem=1900MB
#P OB98/GEN NMR

erre ene a

0 1
  C      -47.521     230.189      44.756
  O      -48.734     230.897      44.935
  P      -48.642     232.459      45.283
  C      -48.011     233.864      47.386
  O      -48.112     232.581      46.790
  C      -47.738     233.720      48.884
  O      -48.832     233.042      49.534
  C      -46.496     232.894      49.198
  O      -45.312     233.650      49.027
  C      -46.757     232.486      50.643
  O      -46.359     233.529      51.550
  C      -48.290     232.310      50.655
  N      -48.692     230.909      50.633
  C      -48.437     230.185      51.798
  O      -47.888     230.677      52.783
  N      -48.802     228.865      51.775
  C      -49.332     228.197      50.707
  O      -49.585     226.998      50.729
  C      -49.547     229.006      49.497
  C      -49.221     230.297      49.511
  O      -50.171     232.920      45.378
  O      -47.879     233.271      44.293
  H      -45.383     233.580      51.503
  H      -50.265     233.831      45.039
  H      -48.649     228.331      52.614
  H      -49.968     228.508      48.633
  H      -49.360     230.906      48.626
  H      -48.714     232.776      51.553
  H      -46.201     231.587      50.925
  H      -46.480     231.991      48.570
  H      -47.650     234.723      49.322
  H      -48.948     234.409      47.232
  H      -47.206     234.423      46.900
  P      -44.010     232.856      48.516
  C      -42.768     230.796      49.534
  O      -43.574     231.936      49.751
  O      -42.936     234.043      48.478
  O      -44.223     232.165      47.212
  H      -43.097     234.709      49.170
  H      -42.038     230.966      48.734
  H      -43.402     229.946      49.276
  H      -42.225     230.566      50.457
  H      -47.735     229.165      44.531
  H      -46.941     230.243      45.654
  H      -46.970     230.624      43.949

 3  4  5  6  7  8  9  10  11  12  13  23  28  29  30  31  32 0
 6-311+G(2d,p)
 ****
 33  34 0
 6-311+G(2d,p)
 ****
 1  2  14  15  16  17  18  19  20  21  22  24  25  26 0
 3-21G
 ****
 27  35  36  37  38  39  40  41  42  43  44  45 0
 3-21G
 ****


