%nproc=1
%NoSave
%Mem=1900MB
#P OB98/GEN NMR

erre ene a

0 1
  C      -53.617    -192.989     127.066
  O      -53.082    -193.516     128.268
  H      -54.491    -192.380     127.308
  H      -53.925    -193.809     126.414
  H      -52.876    -192.362     126.557
  P      -51.615    -194.159     128.189
  C      -52.398    -195.581     126.160
  O      -51.777    -195.573     127.440
  C      -52.756    -197.010     125.755
  O      -53.554    -197.007     124.548
  C      -51.550    -197.901     125.472
  O      -51.017    -198.456     126.669
  C      -52.195    -198.983     124.615
  O      -52.936    -199.896     125.456
  C      -53.167    -198.166     123.753
  N      -53.699    -198.212     118.705
  C      -54.431    -198.865     119.685
  N      -55.450    -199.641     119.248
  N      -54.193    -198.764     120.966
  C      -53.129    -197.964     121.248
  C      -52.323    -197.276     120.370
  C      -52.611    -197.383     118.957
  O      -51.999    -196.813     118.055
  N      -51.352    -196.577     121.028
  C      -51.553    -196.855     122.302
  N      -52.618    -197.704     122.489
  O      -51.327    -194.570     129.711
  O      -50.552    -193.260     127.657
  H      -52.353    -200.140     126.198
  H      -50.726    -193.911     130.107
  H      -53.920    -198.333     117.731
  H      -50.962    -196.472     123.122
  H      -54.082    -198.719     123.521
  H      -51.464    -199.578     124.066
  H      -55.674    -199.782     118.276
  H      -50.778    -197.382     124.887
  H      -56.001    -200.129     119.948
  H      -53.377    -197.439     126.551
  H      -51.704    -195.157     125.429
  H      -53.302    -194.968     126.201
  P      -49.459    -198.212     126.986
  C      -49.093    -200.744     126.575
  O      -48.840    -199.633     127.416
  O      -49.504    -197.390     128.362
  O      -48.702    -197.469     125.937
  H      -49.204    -196.474     128.211
  H      -48.623    -201.614     126.983
  H      -48.699    -200.550     125.599
  H      -50.148    -200.907     126.507

 6  7  8  9  10  11  12  13  14  15  26  29  33  34 0
 6-311+G(2d,p)
 ****
 36  38  39  40  41 0
 6-311+G(2d,p)
 ****
 1  2  3  4  5  16  17  18  19  20  21  22  23  24  25 0
 3-21G
 ****
 27  28  30  31  32  35  37  42  43  44  45  46  47 0
 3-21G
 ****
 48  49 0
 3-21G
 ****


