%nproc=1
%NoSave
%Mem=1900MB
#P OB98/GEN NMR

erre ene a

0 1
  C      197.773     217.531      87.742
  O      197.537     216.723      88.885
  P      196.052     216.143      89.086
  C      195.090     214.017      90.221
  O      196.243     214.681      89.719
  C      195.454     212.637      90.755
  O      195.919     211.805      89.676
  C      196.575     212.634      91.781
  O      196.108     212.974      93.077
  C      197.020     211.179      91.726
  O      196.142     210.372      92.535
  C      196.840     210.836      90.238
  N      201.450     208.819      89.655
  C      200.443     208.491      90.543
  N      200.693     207.456      91.377
  N      199.299     209.116      90.609
  C      199.174     210.100      89.688
  C      200.097     210.522      88.757
  C      201.380     209.852      88.728
  O      202.331     210.142      88.007
  N      199.600     211.540      87.985
  C      198.369     211.712      88.420
  N      198.072     210.881      89.475
  O      195.577     215.837      87.590
  O      195.107     217.051      89.797
  H      196.172     210.737      93.441
  H      194.602     215.863      87.539
  H      202.302     208.291      89.634
  H      197.662     212.416      88.006
  H      196.385     209.848      90.109
  H      198.033     211.027      92.107
  H      201.497     206.857      91.286
  H      197.402     213.282      91.469
  H      199.954     207.178      92.011
  H      194.546     212.179      91.169
  H      194.358     213.903      89.411
  H      194.644     214.629      91.010
  P      196.876     214.172      93.827
  C      196.223     215.707      95.819
  O      195.787     214.822      94.807
  O      197.065     215.264      92.676
  O      198.171     213.775      94.450
  H      197.837     215.831      92.869
  H      197.062     216.319      95.482
  H      196.525     215.131      96.699
  H      195.397     216.365      96.094
  H      198.795     217.847      87.733
  H      197.135     218.389      87.774
  H      197.567     216.966      86.857

 3  4  5  6  7  8  9  10  11  12  23  26  30  31  33  0
 6-311+G(2d,p)
 ****
 35  36  37  38 0
 6-311+G(2d,p)
 ****
 1  2  13  14  15  16  17  18  19  20  21  22  24  25  27  28  29 0
 3-21G
 ****
 32  34  39  40  41  42  43  44  45  46  47  48  49 0
 3-21G
 ****


