%nproc=1
%NoSave
%Mem=1900MB
#P OB98/GEN NMR

erre ene a

0 1
  C      114.670     258.914    -273.722
  O      113.817     258.779    -272.605
  H      115.456     258.156    -273.692
  H      114.082     258.774    -274.634
  H      115.115     259.912    -273.741
  P      114.496     258.912    -271.157
  C      113.970     261.282    -270.249
  O      113.579     259.917    -270.299
  C      113.494     261.910    -268.939
  O      114.160     263.185    -268.776
  C      111.977     262.150    -268.858
  O      111.426     261.466    -267.728
  C      111.843     263.648    -268.626
  O      110.823     263.982    -267.687
  C      113.224     264.053    -268.126
  N      112.951     268.812    -266.325
  C      112.964     267.618    -265.693
  N      113.146     266.391    -266.222
  C      113.358     266.472    -267.548
  C      113.399     267.618    -268.325
  C      113.164     268.835    -267.660
  N      113.095     270.046    -268.312
  N      113.633     267.301    -269.651
  C      113.689     265.986    -269.680
  N      113.508     265.439    -268.436
  O      115.818     259.768    -271.449
  O      114.813     257.618    -270.485
  H      109.975     263.696    -268.080
  H      116.585     259.344    -271.020
  H      112.795     267.650    -264.622
  H      113.809     265.380    -270.568
  H      113.328     263.916    -267.042
  H      111.607     264.135    -269.579
  H      111.451     261.845    -269.770
  H      113.821     261.266    -268.113
  H      113.519     261.824    -271.086
  H      112.807     270.849    -267.778
  H      113.145     270.054    -269.320
  H      115.058     261.345    -270.337
  P      110.847     259.988    -267.992
  C      112.741     258.268    -267.513
  O      111.623     258.987    -267.006
  O      111.441     259.621    -269.433
  O      109.357     259.907    -267.963
  H      110.860     258.979    -269.882
  H      113.147     257.648    -266.741
  H      113.488     258.958    -267.846
  H      112.429     257.657    -268.334

 6  7  8  9  10  11  12  13  14  15  25  28  32  33  34  35 0
 6-311+G(2d,p)
 ****
 36  39  40 0
 6-311+G(2d,p)
 ****
 1  2  3  4  5  16  17  18  19  20  21  22  23  24 0
 3-21G
 ****
 26  27  29  30  31  37  38  41  42  43  44  45  46  47  48 0
 3-21G
 ****


