%nproc=1
%NoSave
%Mem=1900MB
#P OB98/GEN NMR

erre ene a

0 1
  C      209.532     772.159     246.784
  O      208.814     771.037     246.250
  P      209.440     770.344     244.933
  C      207.797     768.472     245.717
  O      208.626     768.988     244.676
  C      207.114     767.187     245.277
  O      206.185     767.435     244.201
  C      208.070     766.124     244.734
  O      208.713     765.415     245.794
  C      207.107     765.220     243.985
  O      206.476     764.296     244.922
  C      206.058     766.214     243.434
  N      204.346     765.570     238.714
  C      203.863     765.075     239.899
  N      202.718     764.331     239.818
  N      204.406     765.307     241.065
  C      205.514     766.087     240.991
  C      206.097     766.631     239.857
  C      205.483     766.361     238.590
  O      205.894     766.743     237.497
  N      207.193     767.385     240.183
  C      207.275     767.319     241.500
  N      206.277     766.528     242.043
  O      210.868     769.815     245.454
  O      209.578     771.270     243.763
  H      206.000     764.845     245.587
  H      211.502     769.764     244.718
  H      203.869     765.368     237.841
  H      208.006     767.813     242.111
  H      205.043     765.836     243.564
  H      207.596     764.604     243.223
  H      202.203     764.181     238.977
  H      208.777     766.561     244.034
  H      202.334     764.000     240.697
  H      206.556     766.790     246.137
  H      207.053     769.210     245.992
  H      208.425     768.318     246.608
  P      210.327     765.416     245.796
  C      209.985     764.029     247.974
  O      210.733     764.243     246.794
  O      210.674     766.749     246.610
  O      210.947     765.404     244.453
  H      211.530     767.100     246.333
  H      208.902     764.115     247.768
  H      210.263     764.782     248.717
  H      210.192     763.032     248.365
  H      209.023     772.529     247.649
  H      209.588     772.931     246.045
  H      210.521     771.853     247.056

 3  4  5  6  7  8  9  10  11  12  23  26  30  31  33  0
 6-311+G(2d,p)
 ****
 35  36  37  38 0
 6-311+G(2d,p)
 ****
 1  2  13  14  15  16  17  18  19  20  21  22  24  25  27  28  29 0
 3-21G
 ****
 32  34  39  40  41  42  43  44  45  46  47  48  49 0
 3-21G
 ****


