%nproc=1
%NoSave
%Mem=1900MB
#P OB98/GEN NMR

erre ene a

0 1
  C       -8.288     372.494    -312.231
  O       -7.063     371.964    -311.768
  H       -8.101     373.066    -313.144
  H       -8.707     373.166    -311.477
  H       -8.998     371.694    -312.456
  P       -7.145     370.828    -310.637
  C       -6.439     372.621    -308.896
  O       -7.354     371.589    -309.240
  C       -5.488     372.142    -307.803
  O       -4.512     373.163    -307.499
  C       -6.171     371.795    -306.483
  O       -6.702     370.475    -306.500
  C       -4.998     371.900    -305.522
  O       -4.169     370.724    -305.640
  C       -4.248     373.123    -306.071
  N       -2.612     377.457    -303.993
  C       -1.901     376.354    -304.427
  N       -0.557     376.413    -304.276
  N       -2.444     375.286    -304.953
  C       -3.798     375.360    -305.020
  C       -4.615     376.395    -304.619
  C       -3.999     377.568    -304.052
  O       -4.585     378.576    -303.665
  N       -5.938     376.101    -304.843
  C       -5.918     374.890    -305.356
  N       -4.645     374.392    -305.481
  O       -5.634     370.295    -310.560
  O       -8.099     369.716    -310.921
  H       -3.482     370.790    -304.949
  H       -5.575     369.444    -311.036
  H       -2.142     378.244    -303.587
  H       -6.795     374.332    -305.662
  H       -3.161     373.038    -305.939
  H       -5.311     371.966    -304.478
  H       -0.073     377.191    -303.858
  H       -6.933     372.538    -306.214
  H       -0.010     375.616    -304.589
  H       -4.939     371.273    -308.194
  H       -6.997     373.491    -308.540
  H       -5.871     372.899    -309.792
  P       -7.931     370.142    -305.524
  C       -6.312     369.160    -303.748
  O       -7.344     370.097    -304.026
  O       -8.228     368.603    -305.851
  O       -9.144     370.983    -305.714
  H       -9.092     368.523    -306.305
  H       -6.022     369.243    -302.721
  H       -5.468     369.363    -304.374
  H       -6.669     368.169    -303.939

 6  7  8  9  10  11  12  13  14  15  26  29  33  34 0
 6-311+G(2d,p)
 ****
 36  38  39  40  41 0
 6-311+G(2d,p)
 ****
 1  2  3  4  5  16  17  18  19  20  21  22  23  24  25 0
 3-21G
 ****
 27  28  30  31  32  35  37  42  43  44  45  46  47 0
 3-21G
 ****
 48  49 0
 3-21G
 ****


