%nproc=1
%NoSave
%Mem=1900MB
#P OB98/GEN NMR

erre ene a

0 1
  C      375.890     345.651     -40.500
  O      375.971     345.564     -41.910
  H      374.888     345.987     -40.226
  H      376.616     346.372     -40.121
  H      376.066     344.671     -40.047
  P      377.356     345.093     -42.563
  C      379.799     345.904     -42.350
  O      378.425     346.232     -42.191
  C      380.614     346.495     -41.208
  O      380.035     346.129     -39.935
  C      382.069     346.026     -41.174
  O      382.847     346.763     -42.104
  C      382.422     346.320     -39.726
  O      382.646     347.735     -39.562
  C      381.127     345.903     -39.002
  N      380.728     342.736     -35.056
  C      380.790     344.119     -35.083
  N      380.788     344.743     -33.886
  N      380.868     344.821     -36.184
  C      380.932     344.062     -37.301
  C      380.899     342.685     -37.398
  C      380.754     341.924     -36.182
  O      380.682     340.695     -36.114
  N      381.057     342.273     -38.700
  C      381.147     343.394     -39.388
  N      381.094     344.509     -38.585
  O      377.319     344.755     -44.024
  O      377.806     343.849     -41.666
  H      382.991     347.857     -38.655
  H      377.491     343.008     -42.042
  H      380.687     342.256     -34.173
  H      381.246     343.455     -40.467
  H      380.935     346.512     -38.110
  H      383.320     345.809     -39.388
  H      381.016     344.256     -33.031
  H      382.149     344.943     -41.338
  H      380.882     345.753     -33.883
  H      380.556     347.588     -41.285
  H      380.127     346.316     -43.311
  H      379.932     344.813     -42.374
  P      384.297     346.238     -42.567
  C      386.105     345.165     -41.066
  O      385.183     346.233     -41.233
  O      384.894     346.987     -43.707
  O      384.090     344.684     -42.854
  H      383.803     344.483     -43.781
  H      386.626     345.285     -40.139
  H      386.807     345.170     -41.873
  H      385.576     344.235     -41.059

 6  7  8  9  10  11  12  13  14  15  26  29  33  34 0
 6-311+G(2d,p)
 ****
 36  38  39  40  41 0
 6-311+G(2d,p)
 ****
 1  2  3  4  5  16  17  18  19  20  21  22  23  24  25 0
 3-21G
 ****
 27  28  30  31  32  35  37  42  43  44  45  46  47 0
 3-21G
 ****
 48  49 0
 3-21G
 ****


