%nproc=1
%NoSave
%Mem=1900MB
#P OB98/GEN NMR

erre ene a

0 1
  C       75.445     415.188    -300.269
  O       75.041     414.624    -299.017
  P       76.007     413.616    -298.221
  C       76.105     411.134    -297.593
  O       75.458     412.112    -298.398
  C       75.472     409.741    -297.699
  O       74.155     409.718    -297.095
  C       75.319     409.207    -299.126
  O       75.497     407.787    -299.037
  C       73.875     409.552    -299.450
  O       73.361     408.804    -300.543
  C       73.206     409.300    -298.094
  N       71.934     410.002    -297.960
  C       70.808     409.388    -298.524
  O       70.923     408.335    -299.144
  N       69.587     410.013    -298.407
  C       69.515     411.193    -297.871
  N       68.288     411.773    -297.807
  C       70.693     411.916    -297.338
  C       71.849     411.261    -297.409
  O       76.296     414.010    -296.805
  O       77.359     413.615    -299.091
  H       72.386     408.839    -300.512
  H       78.120     413.449    -298.500
  H       70.585     412.910    -296.921
  H       72.774     411.706    -297.042
  H       73.020     408.225    -297.947
  H       73.805     410.617    -299.714
  H       76.028     409.645    -299.835
  H       76.100     409.051    -297.111
  H       67.508     411.251    -298.203
  H       76.070     411.466    -296.546
  H       68.134     412.728    -297.513
  H       77.163     411.085    -297.879
  P       76.740     407.040    -299.717
  C       77.260     406.172    -302.071
  O       76.496     407.090    -301.302
  O       77.025     405.676    -299.168
  O       77.981     408.028    -299.504
  H       78.814     407.532    -299.631
  H       76.865     406.142    -303.091
  H       77.205     405.163    -301.641
  H       78.303     406.498    -302.103
  H       74.671     415.828    -300.638
  H       75.624     414.402    -300.973
  H       76.342     415.755    -300.132

 3  4  5  6  7  8  9  10  11  12  13  23  27  28  29  30  32 0
 6-311+G(2d,p)
 ****
 34  35 0
 6-311+G(2d,p)
 ****
 1  2  14  15  16  17  18  19  20  21  22  24  25  26 0
 3-21G
 ****
 31  33  36  37  38  39  40  41  42  43  44  45  46 0
 3-21G
 ****


