%nproc=1
%NoSave
%Mem=1900MB
#P OB98/GEN NMR

erre ene a

0 1
  C       65.519      18.337     -30.845
  O       66.154      19.243     -31.724
  H       64.472      18.620     -30.705
  H       65.558      17.337     -31.283
  H       66.034      18.320     -29.880
  P       66.230      20.773     -31.246
  C       68.239      21.419     -32.756
  O       66.859      21.594     -32.473
  C       68.652      22.305     -33.927
  O       68.067      21.817     -35.151
  C       68.210      23.760     -33.812
  O       69.067      24.506     -32.962
  C       68.333      24.208     -35.261
  O       69.712      24.483     -35.569
  C       67.863      22.960     -36.023
  N       64.429      21.564     -39.549
  C       65.744      21.291     -39.413
  N       66.588      21.682     -38.436
  C       65.940      22.417     -37.518
  C       64.599      22.760     -37.507
  C       63.824      22.306     -38.588
  N       62.492      22.649     -38.750
  N       64.302      23.540     -36.406
  C       65.450      23.679     -35.776
  N       66.466      23.014     -36.405
  O       67.408      20.747     -30.159
  O       64.965      21.324     -30.679
  H       70.212      23.669     -35.371
  H       67.019      20.682     -29.268
  H       66.180      20.680     -40.197
  H       65.592      24.252     -34.870
  H       68.451      22.783     -36.930
  H       67.764      25.116     -35.480
  H       67.161      23.838     -33.501
  H       69.743      22.238     -34.031
  H       68.430      20.371     -33.011
  H       62.196      22.678     -39.721
  H       62.180      23.408     -38.155
  H       68.815      21.677     -31.862
  P       68.385      25.486     -31.890
  C       70.352      24.908     -30.313
  O       69.549      25.935     -30.879
  O       67.486      24.490     -31.018
  O       67.567      26.590     -32.465
  H       66.557      24.793     -31.024
  H       71.082      25.343     -29.664
  H       70.846      24.370     -31.095
  H       69.732      24.238     -29.755

 6  7  8  9  10  11  12  13  14  15  25  28  32  33  34  35 0
 6-311+G(2d,p)
 ****
 36  39  40 0
 6-311+G(2d,p)
 ****
 1  2  3  4  5  16  17  18  19  20  21  22  23  24 0
 3-21G
 ****
 26  27  29  30  31  37  38  41  42  43  44  45  46  47  48 0
 3-21G
 ****


