%nproc=1
%NoSave
%Mem=1900MB
#P OB98/GEN NMR

erre ene a

0 1
  C      -22.068    -454.488    -282.812
  O      -21.748    -454.761    -281.463
  H      -23.116    -454.747    -282.986
  H      -21.444    -455.086    -283.479
  H      -21.931    -453.423    -283.037
  P      -20.326    -454.298    -280.890
  C      -20.639    -452.555    -279.013
  O      -20.543    -453.931    -279.349
  C      -20.733    -452.372    -277.495
  O      -22.067    -452.767    -277.056
  C      -19.714    -453.218    -276.689
  O      -19.414    -452.487    -275.498
  C      -20.544    -454.450    -276.392
  O      -19.952    -455.289    -275.435
  C      -21.883    -453.777    -276.029
  N      -23.034    -454.670    -275.960
  C      -23.139    -455.505    -274.855
  O      -22.327    -455.542    -273.927
  N      -24.232    -456.334    -274.834
  C      -25.211    -456.384    -275.775
  O      -26.191    -457.127    -275.689
  C      -25.045    -455.479    -276.933
  C      -23.989    -454.671    -276.963
  O      -19.609    -453.264    -281.696
  O      -19.491    -455.669    -280.819
  H      -18.881    -455.719    -281.574
  H      -20.577    -456.010    -275.206
  H      -24.319    -456.942    -274.033
  H      -25.801    -455.497    -277.702
  H      -23.835    -453.987    -277.792
  H      -21.778    -453.242    -275.078
  H      -20.651    -455.057    -277.304
  H      -18.792    -453.411    -277.245
  H      -20.623    -451.301    -277.261
  H      -21.546    -452.149    -279.489
  H      -19.770    -452.020    -279.404
  P      -18.143    -451.528    -275.341
  C      -19.514    -450.399    -273.460
  O      -18.223    -450.803    -273.908
  O      -17.954    -450.574    -276.485
  O      -16.882    -452.518    -275.200
  H      -16.077    -452.056    -275.511
  H      -19.429    -449.933    -272.501
  H      -20.150    -451.256    -273.385
  H      -19.933    -449.704    -274.158

 6  7  8  9  10  11  12  13  14  15  16  27  31  32  33  34  35 0
 6-311+G(2d,p)
 ****
 36  37 0
 6-311+G(2d,p)
 ****
 1  2  3  4  5  17  18  19  20  21  22  23  24  25 0
 3-21G
 ****
 26  28  29  30  38  39  40  41  42  43  44  45 0
 3-21G
 ****


