%nproc=1
%NoSave
%Mem=1900MB
#P OB98/GEN NMR

erre ene a

0 1
  C       58.316    -223.684     105.388
  O       56.951    -223.401     105.626
  H       58.872    -223.540     106.318
  H       58.710    -223.001     104.632
  H       58.439    -224.720     105.058
  P       55.937    -223.636     104.405
  C       53.392    -224.119     104.302
  O       54.455    -223.506     105.016
  C       52.163    -224.281     105.200
  O       52.309    -225.508     105.982
  C       51.946    -223.130     106.188
  O       50.532    -222.939     106.346
  C       52.493    -223.692     107.492
  O       51.973    -223.024     108.640
  C       52.062    -225.152     107.354
  N       53.310    -225.791     112.189
  C       52.518    -224.834     111.587
  N       51.972    -223.896     112.395
  N       52.283    -224.792     110.303
  C       52.864    -225.810     109.615
  C       53.674    -226.815     110.092
  C       53.953    -226.827     111.518
  O       54.661    -227.639     112.105
  N       54.093    -227.635     109.077
  C       53.539    -227.128     107.990
  N       52.787    -226.022     108.269
  O       56.091    -225.206     104.120
  O       56.200    -222.820     103.184
  H       52.442    -223.373     109.430
  H       56.757    -225.358     103.424
  H       53.472    -225.768     113.181
  H       53.650    -227.521     106.988
  H       50.995    -225.293     107.560
  H       53.586    -223.603     107.511
  H       52.069    -223.891     113.399
  H       52.417    -222.184     105.893
  H       51.354    -223.208     111.975
  H       51.281    -224.421     104.560
  H       53.715    -225.107     103.957
  H       53.138    -223.507     103.431
  P       49.868    -221.636     105.684
  C       47.479    -220.630     105.473
  O       48.287    -221.713     105.915
  O       50.011    -221.924     104.113
  O       50.521    -220.350     106.073
  H       50.056    -221.081     103.625
  H       46.453    -220.834     105.700
  H       47.593    -220.508     104.416
  H       47.782    -219.732     105.970

 6  7  8  9  10  11  12  13  14  15  26  29  33  34 0
 6-311+G(2d,p)
 ****
 36  38  39  40  41 0
 6-311+G(2d,p)
 ****
 1  2  3  4  5  16  17  18  19  20  21  22  23  24  25 0
 3-21G
 ****
 27  28  30  31  32  35  37  42  43  44  45  46  47 0
 3-21G
 ****
 48  49 0
 3-21G
 ****


