%nproc=1
%NoSave
%Mem=1900MB
#P OB98/GEN NMR

erre ene a

0 1
  C      -24.287      23.619      32.225
  O      -25.646      23.249      32.286
  P      -26.222      22.462      33.558
  C      -28.321      23.910      33.906
  O      -27.818      22.638      33.511
  C      -29.749      24.089      33.398
  O      -29.780      24.190      31.951
  C      -30.671      22.920      33.710
  O      -30.977      22.679      35.065
  C      -31.836      23.203      32.776
  O      -32.720      24.179      33.326
  C      -31.104      23.773      31.535
  N      -31.050      22.806      30.441
  C      -31.852      23.085      29.342
  O      -32.576      24.076      29.260
  N      -31.824      22.162      28.332
  C      -31.124      20.991      28.336
  O      -31.181      20.186      27.414
  C      -30.308      20.743      29.532
  C      -30.305      21.645      30.516
  O      -25.596      22.820      34.863
  O      -26.040      20.923      33.150
  H      -33.107      23.800      34.138
  H      -26.515      20.657      32.343
  H      -32.409      22.338      27.530
  H      -29.729      19.828      29.561
  H      -29.712      21.483      31.409
  H      -31.616      24.672      31.170
  H      -32.429      22.303      32.582
  H      -30.190      22.001      33.351
  H      -30.139      25.029      33.795
  H      -27.689      24.692      33.474
  H      -28.271      24.000      34.995
  P      -31.538      21.279      35.607
  C      -29.848      20.731      37.495
  O      -31.153      21.149      37.158
  O      -31.313      20.086      34.740
  O      -33.115      21.576      35.685
  H      -33.602      20.747      35.518
  H      -29.776      20.655      38.583
  H      -29.112      21.461      37.147
  H      -29.635      19.750      37.062
  H      -24.098      24.131      31.305
  H      -23.676      22.742      32.277
  H      -24.056      24.264      33.047

 3  4  5  6  7  8  9  10  11  12  13  23  28  29  30  31  32 0
 6-311+G(2d,p)
 ****
 33  34 0
 6-311+G(2d,p)
 ****
 1  2  14  15  16  17  18  19  20  21  22  24  25  26  27 0
 3-21G
 ****
 35  36  37  38  39  40  41  42  43  44  45 0
 3-21G
 ****


