%nproc=1
%NoSave
%Mem=1900MB
#P OB98/GEN NMR

erre ene a

0 1
  C     -392.160    -107.983     516.782
  O     -393.400    -108.548     516.334
  P     -393.492    -109.748     515.274
  C     -395.531    -111.265     515.777
  O     -394.152    -111.016     516.015
  C     -396.387    -110.715     516.920
  O     -396.196    -109.286     517.048
  C     -397.892    -110.872     516.744
  O     -398.318    -112.208     516.934
  C     -398.418    -109.889     517.787
  O     -398.476    -110.487     519.088
  C     -397.347    -108.781     517.762
  N     -397.828    -107.541     517.172
  C     -398.454    -106.639     518.033
  O     -398.654    -106.934     519.212
  N     -398.854    -105.425     517.533
  C     -398.738    -105.180     516.263
  N     -399.136    -103.954     515.826
  C     -398.207    -106.162     515.297
  C     -397.772    -107.310     515.815
  O     -392.200    -110.058     514.596
  O     -394.605    -109.299     514.218
  H     -394.440    -109.733     513.362
  H     -398.666    -109.771     519.724
  H     -398.164    -105.935     514.244
  H     -397.353    -108.081     515.180
  H     -396.991    -108.577     518.780
  H     -399.430    -109.539     517.548
  H     -398.175    -110.526     515.741
  H     -396.059    -111.194     517.854
  H     -399.486    -103.300     516.515
  H     -395.681    -112.348     515.710
  H     -399.067    -103.658     514.864
  H     -395.822    -110.818     514.819
  P     -398.342    -113.154     515.639
  C     -397.087    -115.294     516.409
  O     -397.035    -114.082     515.686
  O     -398.055    -112.150     514.431
  O     -399.624    -113.895     515.438
  H     -398.600    -112.393     513.661
  H     -396.370    -115.996     515.968
  H     -398.085    -115.743     516.375
  H     -396.806    -115.111     517.447
  H     -392.358    -107.200     517.484
  H     -391.627    -107.584     515.945
  H     -391.571    -108.743     517.251

 3  4  5  6  7  8  9  10  11  12  13  24  27  28  29  30  32 0
 6-311+G(2d,p)
 ****
 34  35 0
 6-311+G(2d,p)
 ****
 1  2  14  15  16  17  18  19  20  21  22  23  25  26 0
 3-21G
 ****
 31  33  36  37  38  39  40  41  42  43  44  45  46 0
 3-21G
 ****


