%nproc=1
%NoSave
%Mem=1900MB
#P OB98/GEN NMR

erre ene a

0 1
  C      179.700     -60.673     209.973
  O      178.800     -59.999     209.107
  P      177.971     -60.801     207.989
  C      175.836     -60.589     209.431
  O      176.746     -61.466     208.781
  C      174.488     -60.618     208.718
  O      173.991     -61.971     208.680
  C      173.398     -59.797     209.395
  O      173.572     -58.411     209.144
  C      172.146     -60.421     208.785
  O      171.917     -59.901     207.467
  C      172.544     -61.910     208.699
  N      171.999     -62.707     209.792
  C      170.613     -62.892     209.798
  O      169.907     -62.410     208.916
  N      170.055     -63.656     210.794
  C      170.810     -64.170     211.716
  N      170.212     -64.974     212.637
  C      172.267     -63.955     211.777
  C      172.788     -63.226     210.795
  O      178.777     -61.754     207.176
  O      177.252     -59.665     207.130
  H      171.080     -60.297     207.151
  H      177.798     -59.332     206.377
  H      172.850     -64.394     212.575
  H      173.854     -63.040     210.756
  H      172.209     -62.337     207.748
  H      171.240     -60.246     209.374
  H      173.405     -59.969     210.476
  H      174.636     -60.279     207.685
  H      169.247     -65.235     212.453
  H      176.241     -59.570     209.388
  H      170.747     -65.628     213.195
  H      175.734     -60.883     210.480
  P      173.724     -57.441     210.412
  C      176.271     -57.007     210.194
  O      175.234     -57.629     210.928
  O      172.828     -58.153     211.527
  O      173.305     -56.031     210.162
  H      171.964     -57.707     211.607
  H      177.182     -57.027     210.796
  H      176.019     -55.966     209.972
  H      176.450     -57.554     209.265
  H      180.149     -59.967     210.640
  H      180.462     -61.151     209.394
  H      179.167     -61.409     210.538

 3  4  5  6  7  8  9  10  11  12  13  23  27  28  29  30  32 0
 6-311+G(2d,p)
 ****
 34  35 0
 6-311+G(2d,p)
 ****
 1  2  14  15  16  17  18  19  20  21  22  24  25  26 0
 3-21G
 ****
 31  33  36  37  38  39  40  41  42  43  44  45  46 0
 3-21G
 ****


