%nproc=1
%NoSave
%Mem=1900MB
#P OB98/GEN NMR

erre ene a

0 1
  C     -122.624     273.628     122.967
  O     -122.698     272.222     123.108
  H     -121.983     273.859     122.110
  H     -122.184     274.074     123.861
  H     -123.617     274.053     122.785
  P     -123.661     271.611     124.236
  C     -121.838     271.478     126.046
  O     -122.724     270.742     125.215
  C     -120.423     270.907     125.957
  O     -120.428     269.553     126.472
  C     -119.867     270.863     124.527
  O     -118.473     271.179     124.572
  C     -120.049     269.414     124.122
  O     -119.114     269.004     123.125
  C     -119.879     268.691     125.454
  N     -119.331     263.794     124.330
  C     -118.413     264.826     124.287
  N     -117.174     264.521     123.854
  N     -118.693     266.055     124.633
  C     -119.972     266.220     125.059
  C     -120.968     265.277     125.146
  C     -120.653     263.922     124.747
  O     -121.426     262.969     124.759
  N     -122.139     265.836     125.604
  C     -121.845     267.115     125.784
  N     -120.545     267.396     125.459
  O     -124.862     270.881     123.725
  O     -124.064     272.871     125.131
  H     -119.128     268.023     123.106
  H     -124.954     273.192     124.894
  H     -119.063     262.868     124.042
  H     -122.536     267.869     126.138
  H     -118.820     268.500     125.692
  H     -121.063     269.265     123.722
  H     -116.881     263.593     123.585
  H     -120.382     271.551     123.846
  H     -116.477     265.257     123.832
  H     -119.767     271.495     126.611
  H     -122.195     271.408     127.081
  H     -121.840     272.530     125.741
  P     -118.030     272.721     124.542
  C     -118.606     272.724     122.026
  O     -117.663     273.104     123.023
  O     -117.014     273.120     125.563
  O     -119.416     273.494     124.772
  H     -119.234     274.336     125.229
  H     -118.252     273.032     121.064
  H     -119.546     273.194     122.227
  H     -118.729     271.661     122.038

 6  7  8  9  10  11  12  13  14  15  26  29  33  34 0
 6-311+G(2d,p)
 ****
 36  38  39  40  41 0
 6-311+G(2d,p)
 ****
 1  2  3  4  5  16  17  18  19  20  21  22  23  24  25 0
 3-21G
 ****
 27  28  30  31  32  35  37  42  43  44  45  46  47 0
 3-21G
 ****
 48  49 0
 3-21G
 ****


