%nproc=1
%NoSave
%Mem=1900MB
#P OB98/GEN NMR

erre ene a

0 1
  C      359.381    -132.674     371.656
  O      358.837    -132.474     372.971
  P      357.309    -132.071     373.242
  C      355.589    -132.586     375.107
  O      356.963    -132.424     374.769
  C      355.435    -133.465     376.355
  O      355.841    -134.826     376.058
  C      356.302    -133.067     377.545
  O      355.829    -131.901     378.189
  C      356.229    -134.334     378.395
  O      355.052    -134.351     379.212
  C      356.145    -135.447     377.333
  N      357.356    -136.245     377.249
  C      357.831    -136.792     378.447
  O      357.281    -136.522     379.515
  N      358.930    -137.618     378.400
  C      359.559    -137.790     377.279
  N      360.628    -138.632     377.291
  C      359.168    -137.128     376.019
  C      358.066    -136.381     376.076
  O      356.342    -132.650     372.259
  O      357.279    -130.470     373.203
  H      356.391    -130.167     372.944
  H      355.051    -135.208     379.689
  H      359.742    -137.273     375.120
  H      357.703    -135.867     375.193
  H      355.291    -136.104     377.543
  H      357.091    -134.426     379.066
  H      357.331    -132.916     377.203
  H      354.375    -133.473     376.639
  H      360.861    -139.081     378.170
  H      355.079    -133.070     374.268
  H      361.171    -138.858     376.471
  H      355.138    -131.599     375.269
  P      356.802    -130.631     378.199
  C      356.349    -128.087     377.902
  O      355.902    -129.323     378.429
  O      357.273    -130.504     376.669
  O      357.972    -130.753     379.117
  H      358.215    -130.251     376.638
  H      355.481    -127.456     377.708
  H      356.912    -128.222     376.977
  H      356.984    -127.593     378.645
  H      360.416    -132.935     371.734
  H      359.282    -131.772     371.088
  H      358.850    -133.464     371.167

 3  4  5  6  7  8  9  10  11  12  13  24  27  28  29  30  32 0
 6-311+G(2d,p)
 ****
 34  35 0
 6-311+G(2d,p)
 ****
 1  2  14  15  16  17  18  19  20  21  22  23  25  26 0
 3-21G
 ****
 31  33  36  37  38  39  40  41  42  43  44  45  46 0
 3-21G
 ****


