%nproc=1
%NoSave
%Mem=1900MB
#P OB98/GEN NMR

erre ene a

0 1
  C       22.181     -12.102      10.858
  O       22.131     -13.371      11.524
  P       21.597     -13.557      13.026
  C       23.861     -13.274      14.228
  O       22.554     -12.753      14.035
  C       24.429     -12.896      15.602
  O       24.385     -11.447      15.780
  C       23.685     -13.527      16.793
  O       24.681     -13.870      17.763
  C       22.816     -12.372      17.269
  O       22.335     -12.529      18.591
  C       23.798     -11.212      17.078
  N       23.213      -9.877      17.147
  C       23.888      -8.908      17.900
  O       24.907      -9.181      18.532
  N       23.375      -7.633      17.940
  C       22.286      -7.349      17.296
  N       21.839      -6.067      17.370
  C       21.535      -8.341      16.508
  C       22.050      -9.568      16.476
  O       21.394     -14.985      13.417
  O       20.213     -12.755      13.090
  H       19.593     -13.230      13.676
  H       23.104     -12.621      19.182
  H       20.635      -8.060      15.980
  H       21.572     -10.350      15.893
  H       24.606     -11.295      17.815
  H       21.950     -12.288      16.606
  H       23.122     -14.428      16.531
  H       25.488     -13.181      15.620
  H       22.388      -5.410      17.913
  H       24.516     -12.866      13.452
  H       21.008      -5.734      16.902
  H       23.833     -14.364      14.114
  P       25.502     -15.238      17.607
  C       23.687     -16.964      18.327
  O       24.448     -16.401      17.278
  O       25.886     -15.567      19.130
  O       26.736     -15.179      16.765
  H       26.691     -16.117      19.145
  H       22.649     -17.057      17.996
  H       23.711     -16.351      19.232
  H       24.076     -17.958      18.557
  H       22.572     -12.233       9.871
  H       22.813     -11.436      11.407
  H       21.195     -11.691      10.800

 3  4  5  6  7  8  9  10  11  12  13  24  27  28  29  30  32 0
 6-311+G(2d,p)
 ****
 34  35 0
 6-311+G(2d,p)
 ****
 1  2  14  15  16  17  18  19  20  21  22  23  25  26 0
 3-21G
 ****
 31  33  36  37  38  39  40  41  42  43  44  45  46 0
 3-21G
 ****


