%nproc=1
%NoSave
%Mem=1900MB
#P OB98/GEN NMR

erre ene a

0 1
  C      475.693     189.038    -233.536
  O      475.811     187.926    -232.644
  P      476.160     188.040    -231.087
  C      476.126     186.334    -229.089
  O      476.252     186.551    -230.488
  C      476.339     184.858    -228.681
  O      475.217     184.064    -229.167
  C      477.598     184.294    -229.347
  O      478.864     184.516    -228.756
  C      477.268     182.821    -229.598
  O      477.724     181.972    -228.549
  C      475.738     182.810    -229.676
  N      474.901     179.399    -233.402
  C      475.523     179.227    -232.185
  N      476.037     177.997    -231.937
  N      475.648     180.172    -231.287
  C      475.174     181.371    -231.699
  C      474.549     181.670    -232.895
  C      474.365     180.599    -233.848
  O      473.811     180.705    -234.943
  N      474.217     183.003    -232.960
  C      474.657     183.509    -231.825
  N      475.241     182.555    -231.017
  O      475.360     189.030    -230.318
  O      477.698     188.534    -231.093
  H      477.521     181.042    -228.800
  H      477.808     189.100    -230.297
  H      474.809     178.628    -234.041
  H      474.574     184.551    -231.527
  H      475.316     182.018    -229.033
  H      477.762     182.479    -230.517
  H      476.078     177.262    -232.625
  H      477.664     184.749    -230.346
  H      476.674     177.918    -231.142
  H      476.332     184.745    -227.595
  H      475.120     186.671    -228.806
  H      476.830     186.966    -228.542
  P      479.830     185.767    -229.031
  C      482.153     186.573    -228.307
  O      481.171     185.555    -228.176
  O      479.108     186.983    -228.273
  O      480.051     186.095    -230.479
  H      479.467     187.839    -228.591
  H      483.111     186.187    -227.932
  H      481.868     187.441    -227.691
  H      482.272     186.879    -229.349
  H      475.453     188.684    -234.517
  H      476.620     189.571    -233.566
  H      474.917     189.690    -233.193

 3  4  5  6  7  8  9  10  11  12  23  26  30  31 0
 6-311+G(2d,p)
 ****
 33  35  36  37  38 0
 6-311+G(2d,p)
 ****
 1  2  13  14  15  16  17  18  19  20  21  22  24  25 0
 3-21G
 ****
 27  28  29  32  34  39  40  41  42  43  44  45  46  47  48  49 0
 3-21G
 ****


