%nproc=1
%NoSave
%Mem=1900MB
#P OB98/GEN NMR

erre ene a

0 1
  C      117.313    -213.626    -227.170
  O      118.584    -214.179    -226.899
  H      117.084    -212.886    -226.399
  H      116.552    -214.406    -227.149
  H      117.314    -213.127    -228.145
  P      119.118    -215.286    -227.936
  C      121.392    -216.554    -227.847
  O      120.231    -216.132    -227.154
  C      122.456    -217.054    -226.860
  O      123.014    -215.905    -226.151
  C      121.913    -218.011    -225.791
  O      122.980    -218.894    -225.402
  C      121.597    -217.055    -224.650
  O      121.389    -217.760    -223.445
  C      122.823    -216.143    -224.736
  N      124.971    -212.964    -221.357
  C      125.404    -214.114    -221.910
  N      124.785    -214.899    -222.815
  C      123.590    -214.379    -223.155
  C      123.015    -213.213    -222.689
  C      123.761    -212.485    -221.736
  N      123.310    -211.314    -221.167
  N      121.774    -212.998    -223.273
  C      121.613    -214.021    -224.081
  N      122.673    -214.888    -224.042
  O      119.965    -214.419    -228.989
  O      118.064    -216.100    -228.608
  H      120.570    -218.298    -223.489
  H      119.409    -214.200    -229.760
  H      126.387    -214.453    -221.578
  H      120.742    -214.200    -224.710
  H      123.723    -216.638    -224.357
  H      120.675    -216.493    -224.855
  H      121.060    -218.605    -226.128
  H      123.285    -217.512    -227.421
  H      121.785    -215.701    -228.420
  H      121.135    -217.362    -228.543
  H      123.900    -210.862    -220.479
  H      122.403    -210.953    -221.428
  P      123.056    -220.371    -226.040
  C      124.966    -221.963    -226.869
  O      124.594    -220.825    -226.100
  O      122.730    -220.082    -227.583
  O      122.098    -221.368    -225.476
  H      122.325    -220.869    -227.980
  H      126.022    -222.115    -226.793
  H      124.701    -221.803    -227.893
  H      124.454    -222.826    -226.499

 6  7  8  9  10  11  12  13  14  15  25  28  32  33  34  35 0
 6-311+G(2d,p)
 ****
 36  37  40 0
 6-311+G(2d,p)
 ****
 1  2  3  4  5  16  17  18  19  20  21  22  23  24 0
 3-21G
 ****
 26  27  29  30  31  38  39 41  42  43  44  45  46  47  48 0
 3-21G
 ****


