%nproc=1
%NoSave
%Mem=1900MB
#P OB98/GEN NMR

erre ene a

0 1
  C      145.273     237.661    -289.620
  O      146.657     237.717    -289.356
  H      144.803     236.987    -288.900
  H      145.100     237.270    -290.626
  H      144.820     238.652    -289.524
  P      147.528     238.771    -290.195
  C      149.015     239.410    -288.165
  O      148.960     238.862    -289.474
  C      150.382     239.145    -287.534
  O      150.467     237.741    -287.176
  C      151.558     239.467    -288.458
  O      152.612     240.038    -287.677
  C      151.993     238.108    -288.975
  O      153.362     238.083    -289.377
  C      151.657     237.201    -287.784
  N      151.471     235.815    -288.201
  C      152.213     234.848    -287.517
  O      152.985     235.182    -286.616
  N      152.110     233.537    -287.903
  C      151.396     233.228    -288.940
  N      151.356     231.914    -289.293
  C      150.650     234.223    -289.735
  C      150.725     235.483    -289.309
  O      146.851     240.176    -289.842
  O      147.590     238.523    -291.665
  H      153.912     238.374    -288.618
  H      146.915     240.798    -290.591
  H      150.089     233.920    -290.607
  H      150.217     236.284    -289.833
  H      152.458     237.238    -287.034
  H      151.382     237.834    -289.844
  H      151.295     240.152    -289.270
  H      150.450     239.717    -286.601
  H      151.897     231.264    -288.734
  H      148.242     238.939    -287.550
  H      150.871     231.565    -290.106
  H      148.819     240.486    -288.213
  P      152.845     241.617    -287.825
  C      153.388     241.653    -285.285
  O      153.733     242.111    -286.586
  O      151.399     242.233    -287.529
  O      153.352     242.023    -289.170
  H      151.007     242.576    -288.353
  H      154.068     242.066    -284.570
  H      153.445     240.585    -285.256
  H      152.391     241.963    -285.050

 6  7  8  9  10  11  12  13  14  15  16  26  30  31  32  33  35 0
 6-311+G(2d,p)
 ****
 37  38 0
 6-311+G(2d,p)
 ****
 1  2  3  4  5  17  18  19  20  21  22  23  24  25 0
 3-21G
 ****
 27  28  29  34  36  39  40  41  42  43  44  45  46 0
 3-21G
 ****


