%nproc=1
%NoSave
%Mem=1900MB
#P OB98/GEN NMR

erre ene a

0 1
  C      -13.911      60.211       0.383
  O      -13.527      60.419       1.726
  H      -14.585      59.352       0.344
  H      -13.037      59.998      -0.236
  H      -14.438      61.088      -0.003
  P      -12.482      61.588       2.056
  C      -10.021      61.713       2.823
  O      -11.069      60.881       2.339
  C       -8.666      61.021       2.632
  O       -8.609      59.902       3.551
  C       -8.475      60.486       1.206
  O       -7.259      60.925       0.607
  C       -8.695      58.986       1.366
  O       -8.044      58.195       0.394
  C       -8.255      58.721       2.809
  N       -8.868      57.535       3.404
  C       -8.249      56.311       3.171
  O       -7.223      56.151       2.516
  N       -8.860      55.222       3.740
  C      -10.002      55.237       4.483
  O      -10.500      54.228       4.968
  C      -10.625      56.556       4.670
  C      -10.039      57.627       4.130
  O      -12.913      62.561       3.101
  O      -12.246      62.308       0.646
  H       -8.615      58.190      -0.403
  H      -12.718      63.163       0.634
  H       -8.413      54.331       3.591
  H      -11.539      56.602       5.244
  H      -10.470      58.616       4.250
  H       -7.173      58.596       2.864
  H       -9.769      58.783       1.279
  H       -9.244      60.886       0.535
  H       -7.870      61.720       2.913
  H      -10.204      61.902       3.885
  H      -10.029      62.666       2.283
  P       -7.122      62.161      -0.390
  C       -7.793      62.639      -2.887
  O       -7.574      61.692      -1.850
  O       -5.851      62.936      -0.298
  O       -8.321      63.143       0.054
  H       -8.006      64.054      -0.116
  H       -8.087      62.128      -3.780
  H       -6.890      63.184      -3.069
  H       -8.566      63.318      -2.593

 6  7  8  9  10  11  12  13  14  15  16  26  31  32  33  34  35 0
 6-311+G(2d,p)
 ****
 36  37 0
 6-311+G(2d,p)
 ****
 1  2  3  4  5  17  18  19  20  21  22  23  24  25 0
 3-21G
 ****
 27  28  29  30  38  39  40  41  42  43  44  45 0
 3-21G
 ****


