%nproc=1
%NoSave
%Mem=1900MB
#P OB98/GEN NMR

erre ene a

0 1
  C      136.742     -82.939    -614.580
  O      135.464     -82.333    -614.593
  P      134.907     -81.561    -613.301
  C      133.472     -82.170    -611.280
  O      134.333     -82.665    -612.287
  C      132.861     -83.314    -610.459
  O      131.997     -84.118    -611.319
  C      133.900     -84.268    -609.831
  O      133.351     -84.705    -608.588
  C      133.915     -85.431    -610.816
  O      134.421     -86.636    -610.249
  C      132.440     -85.492    -611.205
  N      131.946     -90.065    -613.442
  C      132.222     -89.712    -612.169
  N      132.368     -88.459    -611.652
  C      132.193     -87.546    -612.602
  C      131.940     -87.744    -613.954
  C      131.797     -89.091    -614.370
  N      131.491     -89.462    -615.664
  N      131.884     -86.533    -614.627
  C      132.094     -85.631    -613.699
  N      132.219     -86.170    -612.456
  O      133.970     -80.430    -613.600
  O      136.233     -81.031    -612.568
  H      135.353     -86.494    -609.988
  H      136.335     -80.073    -612.693
  H      132.342     -90.538    -611.468
  H      132.171     -84.555    -613.877
  H      131.826     -85.971    -610.430
  H      134.538     -85.182    -611.682
  H      134.882     -83.823    -609.694
  H      132.225     -82.880    -609.682
  H      132.658     -81.621    -611.779
  H      131.293     -90.429    -615.819
  H      131.113     -88.760    -616.298
  H      134.011     -81.478    -610.621
  P      134.215     -84.556    -607.232
  C      135.437     -86.408    -605.959
  O      135.230     -85.781    -607.216
  O      133.424     -84.365    -605.988
  O      135.166     -83.302    -607.538
  H      135.530     -82.955    -606.701
  H      136.133     -85.820    -605.371
  H      135.836     -87.415    -606.111
  H      134.486     -86.489    -605.394
  H      136.928     -83.399    -615.528
  H      136.777     -83.681    -613.810
  H      137.488     -82.195    -614.392

 3  4  5  6  7  8  9  10  11  12  22  25  29  30  31  32 0
 6-311+G(2d,p)
 ****
 33  36  37 0
 6-311+G(2d,p)
 ****
 1  2  13  14  15  16  17  18  19  20  21  23  24  26 0
 3-21G
 ****
 27  28  34  35  38  39  40  41  42  43  44  45  46  47  48 0
 3-21G
 ****


