%nproc=1
%NoSave
%Mem=1900MB
#P OB98/GEN NMR

erre ene a

0 1
  C     -662.778     351.885     115.406
  O     -663.040     350.494     115.493
  P     -663.492     349.887     116.902
  C     -665.975     350.064     116.145
  O     -665.014     350.357     117.154
  C     -667.170     349.322     116.738
  O     -667.596     349.999     117.956
  C     -668.394     349.251     115.810
  O     -669.052     348.008     116.075
  C     -669.262     350.387     116.313
  O     -670.630     350.234     115.928
  C     -669.002     350.303     117.807
  N     -672.617     352.949     120.276
  C     -672.627     351.707     119.736
  N     -671.615     351.072     119.097
  C     -670.520     351.852     119.037
  C     -670.384     353.144     119.517
  C     -671.497     353.702     120.171
  N     -671.495     354.960     120.729
  N     -669.116     353.634     119.247
  C     -668.508     352.646     118.613
  N     -669.312     351.545     118.495
  O     -662.653     350.768     117.942
  O     -663.239     348.432     117.090
  H     -671.115     351.029     116.193
  H     -661.975     350.210     118.383
  H     -673.549     351.149     119.834
  H     -667.492     352.680     118.239
  H     -669.571     349.503     118.290
  H     -668.906     351.341     115.896
  H     -668.157     349.327     114.745
  H     -666.852     348.312     117.024
  H     -665.502     349.423     115.395
  H     -672.287     355.226     121.299
  H     -670.613     355.448     120.829
  H     -666.294     350.989     115.662
  P     -670.004     347.427     114.922
  C     -668.265     345.650     114.180
  O     -669.042     346.776     113.811
  O     -670.569     348.755     114.201
  O     -671.110     346.554     115.414
  H     -671.443     348.573     113.806
  H     -668.154     345.006     113.294
  H     -668.731     345.078     114.989
  H     -667.279     345.984     114.494
  H     -662.489     352.132     114.406
  H     -661.987     352.142     116.079
  H     -663.660     352.431     115.667

 3  4  5  6  7  8  9  10  11  12  22  25  29  30  31  32 0
 6-311+G(2d,p)
 ****
 33  36  37 0
 6-311+G(2d,p)
 ****
 1  2  13  14  15  16  17  18  19  20  21  23  24  26 0
 3-21G
 ****
 27  28  34  35  38  39  40  41  42  43  44  45  46  47  48 0
 3-21G
 ****


