%nproc=1
%NoSave
%Mem=1900MB
#P OB98/GEN NMR

erre ene a

0 1
  C     -116.418     193.335     263.745
  O     -117.674     192.889     263.272
  H     -116.255     194.357     263.393
  H     -115.624     192.696     263.351
  H     -116.397     193.329     264.839
  P     -118.189     191.471     263.825
  C     -119.534     192.131     265.983
  O     -119.553     191.783     264.610
  C     -120.903     191.892     266.619
  O     -120.760     191.935     268.061
  C     -121.955     192.931     266.225
  O     -123.223     192.277     266.128
  C     -121.969     193.883     267.408
  O     -123.194     194.604     267.506
  C     -121.684     192.919     268.571
  N     -121.147     193.603     269.746
  C     -121.898     193.512     270.922
  O     -122.961     192.891     270.932
  N     -121.453     194.160     272.045
  C     -120.383     194.892     271.985
  N     -120.008     195.528     273.126
  C     -119.584     195.053     270.755
  C     -120.013     194.381     269.687
  O     -117.137     191.173     264.993
  O     -118.282     190.402     262.788
  H     -123.933     193.992     267.303
  H     -116.956     191.943     265.556
  H     -118.707     195.683     270.750
  H     -119.483     194.434     268.744
  H     -122.600     192.393     268.868
  H     -121.157     194.614     267.314
  H     -121.723     193.431     265.281
  H     -121.235     190.880     266.363
  H     -120.597     195.411     273.940
  H     -119.255     193.182     266.105
  H     -119.226     196.166     273.182
  H     -118.772     191.519     266.475
  P     -124.007     192.277     264.734
  C     -122.848     190.639     263.103
  O     -123.886     190.831     264.058
  O     -123.721     193.428     263.830
  O     -125.548     192.308     265.197
  H     -126.027     192.916     264.601
  H     -122.883     189.635     262.735
  H     -121.900     190.816     263.566
  H     -122.980     191.322     262.290

 6  7  8  9  10  11  12  13  14  15  16  26  30  31  32  33  35 0
 6-311+G(2d,p)
 ****
 37  38 0
 6-311+G(2d,p)
 ****
 1  2  3  4  5  17  18  19  20  21  22  23  24  25 0
 3-21G
 ****
 27  28  29  34  36  39  40  41  42  43  44  45  46 0
 3-21G
 ****


