%nproc=1
%NoSave
%Mem=1900MB
#P OB98/GEN NMR

erre ene a

0 1
  C      462.480     254.680      -4.198
  O      462.355     256.070      -3.970
  P      463.411     257.120      -4.565
  C      464.679     259.027      -3.394
  O      464.222     257.685      -3.296
  C      464.730     259.696      -2.020
  O      463.376     259.812      -1.484
  C      465.577     258.954      -0.973
  O      466.163     259.961      -0.141
  C      464.528     258.171      -0.205
  O      464.990     257.742       1.074
  C      463.365     259.170      -0.194
  N      462.092     258.523       0.091
  C      461.817     258.225       1.430
  O      462.669     258.442       2.296
  N      460.616     257.649       1.747
  C      459.801     257.302       0.799
  N      458.622     256.735       1.175
  C      460.106     257.477      -0.632
  C      461.249     258.104      -0.913
  O      462.837     258.163      -5.460
  O      464.500     256.192      -5.283
  H      464.223     257.386       1.571
  H      464.158     255.868      -6.152
  H      459.424     257.122      -1.387
  H      461.556     258.284      -1.934
  H      463.536     259.948       0.568
  H      464.249     257.268      -0.773
  H      466.347     258.311      -1.409
  H      465.114     260.717      -2.151
  H      458.446     256.645       2.170
  H      463.980     259.578      -4.025
  H      457.888     256.505       0.524
  H      465.662     259.056      -3.877
  P      467.363     259.614       0.865
  C      467.608     258.561       3.185
  O      466.717     258.883       2.133
  O      468.262     260.760       1.189
  O      468.161     258.424       0.132
  H      469.038     258.334       0.542
  H      467.029     258.335       4.087
  H      468.284     259.395       3.394
  H      468.195     257.680       2.911
  H      461.676     254.166      -3.715
  H      463.412     254.336      -3.802
  H      462.447     254.487      -5.250

 3  4  5  6  7  8  9  10  11  12  13  23  27  28  29  30  32 0
 6-311+G(2d,p)
 ****
 34  35 0
 6-311+G(2d,p)
 ****
 1  2  14  15  16  17  18  19  20  21  22  24  25  26 0
 3-21G
 ****
 31  33  36  37  38  39  40  41  42  43  44  45  46 0
 3-21G
 ****


