%nproc=1
%NoSave
%Mem=1900MB
#P OB98/GEN NMR

erre ene a

0 1
  C     -308.279      64.626     -43.565
  O     -306.954      64.133     -43.558
  H     -308.857      64.081     -44.317
  H     -308.284      65.689     -43.823
  H     -308.747      64.481     -42.586
  P     -305.962      64.722     -42.444
  C     -306.703      63.262     -40.414
  O     -305.708      63.533     -41.391
  C     -306.652      61.780     -40.022
  O     -306.984      60.984     -41.194
  C     -305.274      61.330     -39.529
  O     -305.440      60.369     -38.480
  C     -304.671      60.653     -40.754
  O     -303.654      59.712     -40.443
  C     -305.922      60.020     -41.378
  N     -305.746      59.718     -42.798
  C     -306.111      58.445     -43.232
  O     -306.646      57.587     -42.521
  N     -305.851      58.167     -44.548
  C     -305.248      59.010     -45.449
  O     -305.021      58.692     -46.609
  C     -304.875      60.333     -44.924
  C     -305.132      60.620     -43.647
  O     -306.891      65.740     -41.625
  O     -304.719      65.365     -42.957
  H     -306.844      66.635     -42.011
  H     -304.044      59.024     -39.863
  H     -306.114      57.253     -44.878
  H     -304.388      61.021     -45.609
  H     -304.858      61.585     -43.235
  H     -306.202      59.111     -40.835
  H     -304.241      61.407     -41.424
  H     -304.655      62.156     -39.180
  H     -307.425      61.586     -39.263
  H     -307.690      63.492     -40.832
  H     -306.531      63.890     -39.535
  P     -304.529      60.544     -37.169
  C     -305.730      61.830     -35.234
  O     -305.551      60.607     -35.928
  O     -304.010      62.047     -37.338
  O     -303.453      59.512     -37.062
  H     -304.681      62.644     -37.719
  H     -306.439      61.692     -34.445
  H     -306.091      62.575     -35.912
  H     -304.795      62.146     -34.822

 6  7  8  9  10  11  12  13  14  15  16  27  31  32  33  34  35 0
 6-311+G(2d,p)
 ****
 36  37 0
 6-311+G(2d,p)
 ****
 1  2  3  4  5  17  18  19  20  21  22  23  24  25 0
 3-21G
 ****
 26  28  29  30  38  39  40  41  42  43  44  45 0
 3-21G
 ****


