%nproc=1
%NoSave
%Mem=1900MB
#P OB98/GEN NMR

erre ene a

0 1
  C      596.004    -304.554     582.667
  O      596.902    -304.945     581.641
  H      596.526    -303.868     583.346
  H      595.667    -305.419     583.243
  H      595.144    -304.033     582.237
  P      596.422    -306.070     580.607
  C      598.816    -305.666     579.713
  O      597.759    -306.598     579.898
  C      599.886    -306.262     578.804
  O      599.293    -306.752     577.585
  C      600.940    -305.252     578.376
  O      601.850    -304.989     579.426
  C      601.527    -305.944     577.158
  O      602.462    -306.958     577.536
  C      600.261    -306.572     576.525
  N      599.710    -305.763     575.443
  C      600.378    -305.841     574.216
  O      601.370    -306.559     574.090
  N      599.916    -305.066     573.171
  C      598.873    -304.315     573.330
  N      598.471    -303.582     572.263
  C      598.135    -304.214     574.606
  C      598.605    -304.956     575.610
  O      595.326    -305.691     579.654
  O      596.000    -307.295     581.548
  H      601.927    -307.716     577.840
  H      595.059    -307.228     581.795
  H      597.269    -303.573     574.692
  H      598.113    -304.943     576.580
  H      600.487    -307.570     576.130
  H      602.040    -305.241     576.505
  H      600.460    -304.324     578.039
  H      600.345    -307.114     579.317
  H      599.017    -303.673     571.411
  H      599.234    -305.457     580.700
  H      597.628    -303.026     572.240
  H      598.437    -304.729     579.287
  P      602.388    -303.505     579.686
  C      602.856    -304.466     582.036
  O      603.320    -303.616     580.991
  O      601.334    -302.443     579.742
  O      603.450    -303.291     578.505
  H      603.000    -303.139     577.640
  H      603.559    -304.455     582.843
  H      602.754    -305.464     581.665
  H      601.907    -304.117     582.385

 6  7  8  9  10  11  12  13  14  15  16  26  30  31  32  33  35 0
 6-311+G(2d,p)
 ****
 37  38 0
 6-311+G(2d,p)
 ****
 1  2  3  4  5  17  18  19  20  21  22  23  24  25 0
 3-21G
 ****
 27  28  29  34  36  39  40  41  42  43  44  45  46 0
 3-21G
 ****


