%nproc=1
%NoSave
%Mem=1900MB
#P OB98/GEN NMR

erre ene a

0 1
  C      495.180     -68.269     342.487
  O      493.834     -68.532     342.832
  H      495.652     -69.206     342.190
  H      495.718     -67.860     343.346
  H      495.230     -67.570     341.648
  P      492.910     -67.307     343.309
  C      491.598     -69.088     344.663
  O      491.525     -68.008     343.747
  C      490.200     -69.503     345.101
  O      489.592     -68.495     345.940
  C      489.198     -69.704     343.970
  O      489.413     -70.891     343.221
  C      487.904     -69.742     344.763
  O      487.771     -71.010     345.419
  C      488.148     -68.600     345.779
  N      487.589     -67.320     345.339
  C      486.201     -67.276     345.162
  O      485.507     -68.268     345.366
  N      485.625     -66.101     344.723
  C      486.379     -65.079     344.466
  N      485.757     -63.948     344.028
  C      487.848     -65.086     344.615
  C      488.381     -66.226     345.060
  O      492.780     -66.171     342.345
  O      493.514     -66.880     344.727
  H      486.989     -70.952     346.002
  H      492.986     -66.115     345.064
  H      488.426     -64.214     344.357
  H      489.454     -66.317     345.182
  H      487.724     -68.857     346.758
  H      487.015     -69.608     344.142
  H      489.176     -68.823     343.301
  H      490.296     -70.412     345.715
  H      484.747     -63.966     343.929
  H      492.201     -68.770     345.520
  H      486.265     -63.122     343.729
  H      492.080     -69.950     344.194
  P      489.514     -70.742     341.622
  C      487.518     -72.298     340.953
  O      488.924     -72.105     341.008
  O      491.083     -70.836     341.350
  O      488.899     -69.497     341.066
  H      491.465     -69.943     341.242
  H      487.306     -73.252     340.518
  H      487.075     -71.528     340.356
  H      487.114     -72.259     341.943

 6  7  8  9  10  11  12  13  14  15  16  26  30  31  32  33  35 0
 6-311+G(2d,p)
 ****
 37  38 0
 6-311+G(2d,p)
 ****
 1  2  3  4  5  17  18  19  20  21  22  23  24  25 0
 3-21G
 ****
 27  28  29  34  36  39  40  41  42  43  44  45  46 0
 3-21G
 ****


