%nproc=1
%NoSave
%Mem=1900MB
#P OB98/GEN NMR

erre ene a

0 1
  C       30.631      61.454      84.135
  O       31.147      62.771      84.153
  H       30.062      61.313      83.212
  H       29.962      61.304      84.987
  H       31.445      60.725      84.168
  P       32.156      63.137      85.340
  C       30.229      63.785      87.002
  O       31.352      62.960      86.721
  C       30.085      63.973      88.510
  O       30.002      62.704      89.189
  C       31.276      64.655      89.162
  O       31.363      66.026      88.845
  C       30.984      64.376      90.628
  O       29.991      65.276      91.139
  C       30.430      62.932      90.559
  N       31.403      61.940      90.993
  C       30.876      60.709      91.406
  O       29.661      60.513      91.378
  N       31.739      59.746      91.866
  C       33.014      59.978      91.888
  N       33.813      58.986      92.364
  C       33.612      61.249      91.438
  C       32.757      62.178      91.013
  O       32.288      64.725      85.210
  O       33.457      62.405      85.320
  H       30.346      66.178      91.012
  H       31.433      65.188      85.209
  H       34.682      61.395      91.466
  H       33.113      63.139      90.667
  H       29.537      62.831      91.190
  H       31.871      64.495      91.254
  H       32.204      64.131      88.899
  H       29.155      64.524      88.697
  H       33.366      58.136      92.683
  H       29.315      63.360      86.577
  H       34.814      59.065      92.459
  H       30.400      64.751      86.516
  P       32.772      66.687      88.460
  C       33.141      67.015      90.987
  O       33.702      66.551      89.763
  O       32.693      68.065      87.896
  O       33.423      65.613      87.467
  H       33.557      64.730      87.853
  H       33.847      66.874      91.779
  H       32.249      66.464      91.202
  H       32.905      68.055      90.900

 6  7  8  9  10  11  12  13  14  15  16  26  30  31  32  33  35 0
 6-311+G(2d,p)
 ****
 37  38 0
 6-311+G(2d,p)
 ****
 1  2  3  4  5  17  18  19  20  21  22  23  24  25 0
 3-21G
 ****
 27  28  29  34  36  39  40  41  42  43  44  45  46 0
 3-21G
 ****


