%nproc=1
%NoSave
%Mem=1900MB
#P OB98/GEN NMR

erre ene a

0 1
  C     -314.925    -236.156    -131.995
  O     -313.719    -235.660    -132.552
  P     -313.235    -236.248    -133.961
  C     -314.504    -234.544    -135.454
  O     -314.357    -235.900    -135.054
  C     -315.257    -234.449    -136.782
  O     -315.437    -233.053    -137.141
  C     -314.531    -235.128    -137.950
  O     -315.501    -235.682    -138.853
  C     -313.854    -233.975    -138.663
  O     -313.584    -234.291    -140.029
  C     -314.891    -232.867    -138.463
  N     -313.744    -229.186    -141.726
  C     -314.567    -230.283    -141.894
  N     -315.081    -230.464    -143.131
  N     -314.862    -231.121    -140.937
  C     -314.268    -230.817    -139.757
  C     -313.445    -229.750    -139.465
  C     -313.120    -228.838    -140.537
  O     -312.377    -227.865    -140.461
  N     -313.068    -229.756    -138.149
  C     -313.619    -230.843    -137.650
  N     -314.327    -231.540    -138.596
  O     -313.386    -237.829    -133.757
  O     -311.837    -235.890    -134.339
  H     -312.966    -233.614    -140.359
  H     -312.507    -238.234    -133.640
  H     -313.539    -228.573    -142.500
  H     -313.519    -231.187    -136.628
  H     -315.717    -232.955    -139.176
  H     -312.906    -233.734    -138.171
  H     -314.840    -229.892    -143.926
  H     -313.824    -235.908    -137.652
  H     -315.651    -231.284    -143.290
  H     -316.259    -234.875    -136.650
  H     -313.516    -234.100    -135.574
  H     -315.039    -233.990    -134.676
  P     -315.026    -236.967    -139.690
  C     -316.274    -238.646    -138.145
  O     -315.040    -238.190    -138.658
  O     -313.467    -236.692    -139.934
  O     -315.775    -237.179    -140.964
  H     -313.164    -237.162    -140.735
  H     -316.435    -239.678    -138.469
  H     -317.116    -238.034    -138.481
  H     -316.235    -238.622    -137.051
  H     -315.113    -235.670    -131.060
  H     -314.838    -237.211    -131.837
  H     -315.735    -235.961    -132.667

 3  4  5  6  7  8  9  10  11  12  23  26  30  31 0
 6-311+G(2d,p)
 ****
 33  35  36  37  38 0
 6-311+G(2d,p)
 ****
 1  2  13  14  15  16  17  18  19  20  21  22  24  25 0
 3-21G
 ****
 27  28  29  32  34  39  40  41  42  43  44  45  46  47  48  49 0
 3-21G
 ****


