%nproc=1
%NoSave
%Mem=1900MB
#P OB98/GEN NMR

erre ene a

0 1
  C        2.786       6.655     -21.621
  O        2.612       5.549     -22.488
  P        3.637       4.321     -22.436
  C        3.977       2.390     -20.725
  O        3.575       3.723     -20.951
  C        4.383       2.173     -19.262
  O        5.617       2.895     -19.032
  C        3.390       2.707     -18.236
  O        3.661       2.089     -16.976
  C        3.763       4.171     -18.175
  O        3.301       4.797     -16.981
  C        5.303       4.132     -18.349
  N        5.788       5.284     -19.129
  C        6.227       6.391     -18.409
  O        6.294       6.407     -17.181
  N        6.508       7.510     -19.144
  C        6.344       7.629     -20.492
  O        6.300       8.700     -21.084
  C        6.112       6.369     -21.217
  C        5.822       5.274     -20.510
  O        5.062       5.046     -22.495
  O        3.477       3.322     -23.528
  H        2.341       4.588     -16.904
  H        5.398       5.054     -23.411
  H        6.686       8.352     -18.611
  H        6.124       6.393     -22.297
  H        5.595       4.341     -21.019
  H        5.815       4.139     -17.380
  H        3.303       4.694     -19.022
  H        2.340       2.564     -18.510
  H        4.578       1.108     -19.093
  H        4.806       2.145     -21.396
  H        3.163       1.700     -20.975
  P        2.429       1.843     -15.980
  C        0.438       0.222     -15.986
  O        1.391       0.910     -16.770
  O        1.845       3.061     -15.348
  O        3.042       0.841     -14.888
  H        2.493       0.856     -14.084
  H       -0.466       0.071     -16.582
  H        0.179       0.784     -15.085
  H        0.842      -0.753     -15.702
  H        2.012       7.372     -21.798
  H        3.739       7.106     -21.805
  H        2.739       6.323     -20.605

 3  4  5  6  7  8  9  10  11  12  13  23  28  29  30  31  32 0
 6-311+G(2d,p)
 ****
 33  34 0
 6-311+G(2d,p)
 ****
 1  2  14  15  16  17  18  19  20  21  22  24  25  26  27 0
 3-21G
 ****
 35  36  37  38  39  40  41  42  43  44  45 0
 3-21G
 ****


