%nproc=1
%NoSave
%Mem=1900MB
#P OB98/GEN NMR

erre ene a

0 1
  C      507.829     686.603      83.538
  O      507.716     685.197      83.652
  H      507.376     687.061      84.419
  H      507.298     686.948      82.652
  H      508.883     686.903      83.492
  P      508.395     684.271      82.529
  C      509.894     682.957      84.157
  O      508.800     682.892      83.254
  C      509.858     681.785      85.135
  O      508.850     682.050      86.144
  C      509.523     680.446      84.477
  O      510.295     679.421      85.106
  C      508.051     680.250      84.798
  O      507.680     678.869      84.818
  C      507.934     680.932      86.158
  N      503.282     679.390      87.383
  C      504.460     678.670      87.275
  N      504.388     677.342      87.506
  N      505.611     679.214      86.967
  C      505.542     680.554      86.778
  C      504.440     681.375      86.855
  C      503.165     680.761      87.177
  O      502.081     681.338      87.269
  N      504.759     682.676      86.564
  C      506.065     682.642      86.323
  N      506.568     681.378      86.422
  O      509.505     684.911      81.753
  O      507.177     683.843      81.590
  H      507.932     678.492      83.947
  H      507.159     684.390      80.779
  H      502.420     678.921      87.614
  H      506.670     683.497      86.052
  H      508.221     680.268      86.987
  H      507.440     680.762      84.046
  H      503.540     676.864      87.761
  H      509.715     680.439      83.397
  H      505.242     676.799      87.457
  H      510.823     681.742      85.653
  H      509.833     683.906      84.711
  H      510.839     682.947      83.588
  P      510.472     678.015      84.358
  C      513.002     678.168      83.886
  O      511.973     677.502      84.606
  O      510.022     677.976      82.933
  O      509.610     677.014      85.268
  H      509.250     676.302      84.707
  H      513.949     677.737      84.136
  H      513.003     679.206      84.144
  H      512.828     678.062      82.836

 6  7  8  9  10  11  12  13  14  15  26  29  33  34 0
 6-311+G(2d,p)
 ****
 36  38  39  40  41 0
 6-311+G(2d,p)
 ****
 1  2  3  4  5  16  17  18  19  20  21  22  23  24  25 0
 3-21G
 ****
 27  28  30  31  32  35  37  42  43  44  45  46  47 0
 3-21G
 ****
 48  49 0
 3-21G
 ****


