%nproc=1
%NoSave
%Mem=1900MB
#P OB98/GEN NMR

erre ene a

0 1
  C      190.058     369.867     376.197
  O      189.396     369.722     374.936
  P      190.092     368.848     373.788
  C      189.332     370.585     372.040
  O      189.384     369.207     372.387
  C      188.325     370.824     370.918
  O      188.878     370.484     369.630
  C      187.070     369.977     371.044
  O      186.225     370.489     372.071
  C      186.497     370.057     369.645
  O      185.749     371.285     369.452
  C      187.771     370.087     368.783
  N      188.042     368.815     368.124
  C      187.416     368.623     366.877
  O      186.661     369.493     366.424
  N      187.655     367.458     366.187
  C      188.442     366.562     366.700
  N      188.642     365.427     365.977
  C      189.111     366.728     368.003
  C      188.864     367.865     368.657
  O      190.224     367.382     374.078
  O      191.535     369.537     373.632
  H      186.410     372.012     369.494
  H      192.175     368.858     373.345
  H      189.770     365.944     368.387
  H      189.317     368.053     369.627
  H      187.691     370.864     367.994
  H      185.812     369.244     369.424
  H      187.341     368.938     371.273
  H      188.063     371.887     370.910
  H      188.165     365.344     365.081
  H      190.320     370.922     371.726
  H      189.278     364.692     366.263
  H      189.071     371.159     372.940
  P      186.181     369.687     373.464
  C      183.831     369.487     374.526
  O      184.977     370.291     374.345
  O      187.497     370.233     374.228
  O      186.212     368.186     373.337
  H      187.872     369.517     374.767
  H      183.267     369.878     375.375
  H      184.081     368.450     374.727
  H      183.203     369.543     373.635
  H      189.462     370.476     376.845
  H      191.011     370.330     376.048
  H      190.195     368.903     376.641

 3  4  5  6  7  8  9  10  11  12  13  23  27  28  29  30  32 0
 6-311+G(2d,p)
 ****
 34  35 0
 6-311+G(2d,p)
 ****
 1  2  14  15  16  17  18  19  20  21  22  24  25  26 0
 3-21G
 ****
 31  33  36  37  38  39  40  41  42  43  44  45  46 0
 3-21G
 ****


