%nproc=1
%NoSave
%Mem=1900MB
#P OB98/GEN NMR

erre ene a

0 1
  C     -141.045    -333.462      67.152
  O     -140.694    -332.616      66.063
  P     -140.961    -333.154      64.572
  C     -138.417    -333.069      64.084
  O     -139.715    -332.682      63.671
  C     -137.355    -332.578      63.095
  O     -136.037    -332.822      63.668
  C     -137.387    -333.263      61.725
  O     -136.976    -332.293      60.753
  C     -136.317    -334.334      61.844
  O     -135.845    -334.766      60.574
  C     -135.286    -333.591      62.695
  N     -132.307    -337.716      62.156
  C     -133.073    -337.040      61.276
  N     -133.843    -335.948      61.493
  C     -133.766    -335.565      62.779
  C     -133.052    -336.174      63.797
  C     -132.292    -337.304      63.452
  N     -131.502    -337.986      64.343
  N     -133.244    -335.500      64.996
  C     -134.055    -334.506      64.702
  N     -134.374    -334.495      63.368
  O     -142.165    -332.223      64.070
  O     -141.317    -334.599      64.469
  H     -135.311    -335.574      60.707
  H     -142.978    -332.753      63.977
  H     -133.072    -337.425      60.252
  H     -134.437    -333.787      65.405
  H     -134.687    -332.887      62.100
  H     -136.718    -335.199      62.380
  H     -138.367    -333.679      61.458
  H     -137.461    -331.493      62.990
  H     -138.375    -334.165      64.120
  H     -130.881    -338.700      63.991
  H     -131.334    -337.577      65.264
  H     -138.212    -332.685      65.087
  P     -137.999    -331.971      59.563
  C     -136.505    -333.277      57.888
  O     -137.171    -332.066      58.200
  O     -138.289    -330.407      59.734
  O     -139.264    -332.778      59.617
  H     -139.176    -330.194      59.386
  H     -136.504    -333.421      56.808
  H     -136.988    -334.140      58.360
  H     -135.468    -333.216      58.246
  H     -140.811    -332.972      68.074
  H     -140.495    -334.377      67.084
  H     -142.093    -333.673      67.116

 3  4  5  6  7  8  9  10  11  12  22  25  29  30  31  32 0
 6-311+G(2d,p)
 ****
 33  36  37 0
 6-311+G(2d,p)
 ****
 1  2  13  14  15  16  17  18  19  20  21  23  24  26 0
 3-21G
 ****
 27  28  34  35  38  39  40  41  42  43  44  45  46  47  48 0
 3-21G
 ****


