%nproc=1
%NoSave
%Mem=1900MB
#P OB98/GEN NMR

erre ene a

0 1
  C      -16.899     265.948    -113.271
  O      -17.208     265.807    -111.895
  P      -18.617     266.356    -111.367
  C      -17.648     268.480    -110.218
  O      -18.496     267.952    -111.226
  C      -18.440     268.724    -108.930
  O      -17.510     268.971    -107.832
  C      -19.396     269.925    -108.998
  O      -20.544     269.612    -108.197
  C      -18.588     271.022    -108.330
  O      -19.389     272.102    -107.871
  C      -17.904     270.217    -107.220
  N      -16.761     270.914    -106.632
  C      -17.019     271.790    -105.581
  O      -18.143     272.008    -105.127
  N      -15.936     272.474    -105.096
  C      -14.668     272.437    -105.603
  O      -13.767     273.162    -105.196
  C      -14.456     271.495    -106.712
  C      -15.493     270.787    -107.169
  O      -18.664     265.843    -109.851
  O      -19.799     265.894    -112.150
  H      -19.976     271.757    -107.172
  H      -19.221     265.044    -109.781
  H      -16.103     273.106    -104.328
  H      -13.456     271.424    -107.124
  H      -15.368     270.099    -108.000
  H      -18.626     269.971    -106.432
  H      -17.858     271.423    -109.041
  H      -19.701     270.184    -110.020
  H      -18.998     267.807    -108.685
  H      -17.227     269.427    -110.563
  H      -16.817     267.790    -110.036
  P      -21.979     269.578    -108.922
  C      -23.277     271.122    -107.256
  O      -22.720     270.946    -108.543
  O      -22.732     268.474    -108.036
  O      -21.910     269.232    -110.374
  H      -22.571     268.585    -107.082
  H      -22.686     270.614    -106.488
  H      -24.297     270.724    -107.246
  H      -23.312     272.189    -107.027
  H      -15.931     265.535    -113.463
  H      -16.903     266.985    -113.533
  H      -17.630     265.430    -113.856

 3  4  5  6  7  8  9  10  11  12  13  23  28  29  30  31  32 0
 6-311+G(2d,p)
 ****
 33  34 0
 6-311+G(2d,p)
 ****
 1  2  14  15  16  17  18  19  20  21  22  24  25  26 0
 3-21G
 ****
 27  35  36  37  38  39  40  41  42  43  44  45 0
 3-21G
 ****


