%nproc=1
%NoSave
%Mem=1900MB
#P OB98/GEN NMR

erre ene a

0 1
  C       76.758    -354.381      86.542
  O       75.459    -354.973      86.450
  P       74.920    -355.248      84.965
  C       74.206    -357.685      85.491
  O       75.003    -356.831      84.678
  C       74.107    -359.081      84.891
  O       73.811    -359.019      83.462
  C       75.367    -359.931      85.043
  O       74.969    -361.293      85.218
  C       76.052    -359.773      83.700
  O       77.002    -360.800      83.470
  C       74.832    -359.815      82.785
  N       73.895    -360.644      77.892
  C       73.578    -361.394      78.997
  N       72.857    -362.529      78.767
  N       73.928    -361.076      80.206
  C       74.612    -359.910      80.298
  C       74.976    -359.055      79.276
  C       74.602    -359.444      77.925
  O       74.876    -358.804      76.915
  N       75.642    -357.961      79.765
  C       75.727    -358.185      81.054
  N       75.067    -359.327      81.445
  O       76.086    -354.637      84.040
  O       73.595    -354.614      84.673
  H       77.437    -360.636      82.613
  H       75.817    -353.755      83.711
  H       73.627    -360.928      76.964
  H       76.220    -357.542      81.758
  H       74.433    -360.837      82.671
  H       76.559    -358.813      83.605
  H       72.519    -362.794      77.866
  H       76.035    -359.612      85.870
  H       72.565    -363.073      79.566
  H       73.263    -359.605      85.368
  H       73.202    -357.253      85.593
  H       74.613    -357.700      86.513
  P       74.398    -361.733      86.642
  C       72.232    -362.822      85.719
  O       72.798    -361.796      86.524
  O       74.657    -360.422      87.539
  O       75.057    -362.936      87.222
  H       74.936    -360.701      88.446
  H       71.237    -363.027      86.075
  H       72.826    -363.734      85.737
  H       72.159    -362.446      84.687
  H       77.015    -354.243      87.571
  H       76.754    -353.433      86.046
  H       77.477    -355.024      86.078

 3  4  5  6  7  8  9  10  11  12  23  26  30  31 0
 6-311+G(2d,p)
 ****
 33  35  36  37  38 0
 6-311+G(2d,p)
 ****
 1  2  13  14  15  16  17  18  19  20  21  22  24  25 0
 3-21G
 ****
 27  28  29  32  34  39  40  41  42  43  44  45  46  47  48  49 0
 3-21G
 ****


