%nproc=1
%NoSave
%Mem=1900MB
#P OB98/GEN NMR

erre ene a

0 1
  C      191.681      81.111     397.081
  O      192.557      80.088     396.649
  H      190.901      80.666     397.702
  H      191.212      81.595     396.216
  H      192.228      81.850     397.671
  P      193.797      80.543     395.735
  C      193.891      81.554     393.352
  O      193.153      80.774     394.284
  C      193.120      81.696     392.041
  O      192.105      82.712     392.159
  C      193.981      82.106     390.849
  O      194.655      80.985     390.307
  C      192.910      82.631     389.896
  O      192.257      81.527     389.241
  C      191.925      83.329     390.854
  N      189.517      87.843     391.289
  C      189.054      86.607     391.012
  N      189.759      85.458     390.872
  C      191.071      85.679     391.042
  C      191.690      86.890     391.328
  C      190.848      88.011     391.461
  N      191.322      89.272     391.755
  N      193.055      86.735     391.433
  C      193.255      85.440     391.268
  N      192.092      84.767     390.991
  O      195.001      79.670     395.795
  O      194.018      82.046     396.251
  H      192.951      80.901     388.958
  H      193.165      82.480     396.426
  H      187.978      86.519     390.892
  H      194.214      84.943     391.350
  H      190.884      83.163     390.554
  H      193.329      83.267     389.114
  H      194.663      82.921     391.105
  H      192.605      80.745     391.847
  H      194.868      81.097     393.159
  H      190.677      90.045     391.663
  H      192.322      89.417     391.761
  H      194.053      82.539     393.803
  P      196.047      81.166     389.528
  C      196.638      81.749     387.090
  O      195.706      81.927     388.153
  O      196.849      79.920     389.363
  O      196.836      82.276     390.369
  H      197.790      82.064     390.402
  H      196.310      82.298     386.232
  H      196.705      80.710     386.844
  H      197.599      82.106     387.395

 6  7  8  9  10  11  12  13  14  15  25  28  32  33  34  35 0
 6-311+G(2d,p)
 ****
 36  39  40 0
 6-311+G(2d,p)
 ****
 1  2  3  4  5  16  17  18  19  20  21  22  23  24 0
 3-21G
 ****
 26  27  29  30  31  37  38  41  42  43  44  45  46  47 0
 3-21G
 ****
 48 0
 3-21G
 ****


