%nproc=1
%NoSave
%Mem=1900MB
#P OB98/GEN NMR

erre ene a

0 1
  C      -12.647      15.433     126.776
  O      -12.269      16.698     127.330
  P      -10.963      17.407     126.723
  C       -8.397      16.980     127.038
  O       -9.726      16.500     127.189
  C       -7.541      16.529     128.219
  O       -7.993      17.154     129.445
  C       -7.589      15.032     128.488
  O       -6.831      14.310     127.531
  C       -7.046      14.977     129.909
  O       -5.612      15.054     129.901
  C       -7.640      16.261     130.528
  N       -8.777      16.003     131.400
  C       -8.478      15.435     132.635
  O       -7.334      15.137     132.979
  N       -9.545      15.199     133.458
  C      -10.854      15.442     133.162
  O      -11.769      15.219     133.945
  C      -11.113      15.996     131.824
  C      -10.079      16.247     131.016
  O      -10.868      18.713     127.638
  O      -11.068      17.664     125.257
  H      -11.151      18.556     128.555
  H       -5.299      14.317     129.340
  H       -9.348      14.799     134.363
  H      -12.143      16.178     131.545
  H      -10.251      16.654     130.023
  H       -6.874      16.784     131.115
  H       -7.321      14.052     130.427
  H       -8.629      14.685     128.474
  H       -6.507      16.846     128.032
  H       -8.398      18.072     126.991
  H       -7.993      16.608     126.092
  P       -7.638      13.685     126.288
  C       -9.587      11.949     126.148
  O       -8.489      12.459     126.871
  O       -6.453      12.983     125.471
  O       -8.412      14.695     125.507
  H       -5.839      12.492     126.041
  H       -9.807      10.941     126.509
  H       -9.375      11.899     125.078
  H      -10.463      12.582     126.318
  H      -13.527      15.077     127.269
  H      -11.852      14.731     126.915
  H      -12.845      15.546     125.731

 3  4  5  6  7  8  9  10  11  12  13  24  28  29  30  31  32 0
 6-311+G(2d,p)
 ****
 33  34 0
 6-311+G(2d,p)
 ****
 1  2  14  15  16  17  18  19  20  21  22  23  25  26  27 0
 3-21G
 ****
 35  36  37  38  39  40  41  42  43  44  45 0
 3-21G
 ****


