%nproc=1
%NoSave
%Mem=1900MB
#P OB98/GEN NMR

erre ene a

0 1
  C      399.283    -159.690     -48.754
  O      399.125    -160.856     -47.935
  P      397.884    -161.863     -48.083
  C      398.823    -163.666     -49.673
  O      398.432    -163.347     -48.341
  C      398.612    -165.149     -49.984
  O      399.016    -165.450     -51.336
  C      399.404    -166.107     -49.105
  O      398.825    -166.219     -47.816
  C      399.360    -167.383     -49.944
  O      398.124    -168.090     -49.736
  C      399.441    -166.826     -51.378
  N      400.769    -166.958     -51.954
  C      401.043    -168.148     -52.636
  O      400.202    -169.048     -52.681
  N      402.275    -168.300     -53.233
  C      403.174    -167.380     -53.094
  N      404.372    -167.581     -53.713
  C      402.961    -166.150     -52.310
  C      401.748    -166.006     -51.774
  O      396.853    -161.415     -49.069
  O      397.246    -161.954     -46.612
  H      398.135    -168.400     -48.813
  H      396.287    -162.109     -46.690
  H      403.750    -165.422     -52.193
  H      401.502    -165.127     -51.186
  H      398.724    -167.342     -52.030
  H      400.170    -168.077     -49.700
  H      400.444    -165.762     -49.027
  H      397.536    -165.357     -49.904
  H      404.481    -168.432     -54.247
  H      399.884    -163.421     -49.784
  H      405.140    -166.925     -53.668
  H      398.244    -163.045     -50.366
  P      399.634    -165.714     -46.530
  C      400.462    -163.301     -46.822
  O      399.399    -164.136     -46.397
  O      401.062    -166.156     -46.452
  O      398.789    -166.296     -45.297
  H      399.398    -166.490     -44.559
  H      400.063    -162.314     -47.065
  H      400.960    -163.715     -47.706
  H      401.191    -163.202     -46.011
  H      400.179    -159.177     -48.474
  H      398.443    -159.042     -48.617
  H      399.345    -159.982     -49.782

 3  4  5  6  7  8  9  10  11  12  13  23  27  28  29  30  32 0
 6-311+G(2d,p)
 ****
 34  35 0
 6-311+G(2d,p)
 ****
 1  2  14  15  16  17  18  19  20  21  22  24  25  26 0
 3-21G
 ****
 31  33  36  37  38  39  40  41  42  43  44  45  46 0
 3-21G
 ****


