%nproc=1
%NoSave
%Mem=1900MB
#P OB98/GEN NMR

erre ene a

0 1
  C     -164.660    -210.753    -329.539
  O     -163.878    -209.636    -329.928
  P     -163.563    -209.437    -331.485
  C     -165.905    -208.396    -331.923
  O     -164.964    -209.402    -332.273
  C     -167.248    -208.648    -332.609
  O     -168.294    -207.928    -331.905
  C     -167.285    -208.192    -334.072
  O     -168.135    -209.078    -334.821
  C     -167.979    -206.848    -334.006
  O     -168.583    -206.508    -335.255
  C     -168.974    -207.095    -332.869
  N     -171.790    -202.950    -333.509
  C     -171.778    -204.122    -334.238
  N     -172.562    -204.156    -335.337
  N     -171.066    -205.169    -333.914
  C     -170.324    -204.988    -332.794
  C     -170.266    -203.877    -331.979
  C     -171.051    -202.725    -332.357
  O     -171.085    -201.647    -331.770
  N     -169.428    -204.080    -330.914
  C     -168.945    -205.293    -331.100
  N     -169.429    -205.869    -332.246
  O     -162.932    -210.846    -331.905
  O     -162.627    -208.317    -331.795
  H     -169.332    -207.118    -335.382
  H     -161.966    -210.756    -332.018
  H     -172.352    -202.167    -333.807
  H     -168.229    -205.788    -330.458
  H     -169.854    -207.644    -333.217
  H     -167.257    -206.066    -333.746
  H     -173.081    -203.360    -335.678
  H     -166.304    -208.135    -334.555
  H     -172.535    -204.987    -335.914
  H     -167.489    -209.716    -332.529
  H     -165.521    -207.425    -332.238
  H     -166.032    -208.378    -330.835
  P     -167.692    -209.354    -336.341
  C     -165.995    -211.124    -335.472
  O     -166.218    -209.973    -336.259
  O     -167.455    -207.885    -336.930
  O     -168.686    -210.135    -337.136
  H     -167.579    -207.886    -337.899
  H     -165.672    -211.942    -336.120
  H     -166.891    -211.435    -334.926
  H     -165.199    -210.912    -334.750
  H     -164.783    -210.749    -328.476
  H     -164.168    -211.655    -329.838
  H     -165.619    -210.698    -330.009

 3  4  5  6  7  8  9  10  11  12  23  26  30  31 0
 6-311+G(2d,p)
 ****
 33  35  36  37  38 0
 6-311+G(2d,p)
 ****
 1  2  13  14  15  16  17  18  19  20  21  22  24  25 0
 3-21G
 ****
 27  28  29  32  34  39  40  41  42  43  44  45  46  47  48  49 0
 3-21G
 ****


