%nproc=1
%NoSave
%Mem=1900MB
#P OB98/GEN NMR

erre ene a

0 1
  C      361.838     125.974     553.707
  O      360.537     125.389     553.548
  P      359.749     124.695     554.756
  C      359.663     122.180     554.178
  O      360.311     123.192     554.942
  C      359.955     120.782     554.717
  O      361.364     120.466     554.612
  C      359.600     120.594     556.201
  O      358.217     120.398     556.361
  C      360.465     119.390     556.562
  O      359.837     118.169     556.148
  C      361.742     119.646     555.728
  N      366.466     119.078     557.609
  C      365.694     118.268     556.843
  N      364.434     118.483     556.397
  C      364.005     119.705     556.776
  C      364.677     120.639     557.538
  C      365.981     120.282     557.966
  N      366.763     121.103     558.746
  N      363.917     121.763     557.746
  C      362.789     121.508     557.092
  N      362.798     120.283     556.489
  O      358.271     124.774     554.658
  O      360.280     125.445     556.071
  H      360.467     117.441     556.310
  H      359.590     125.421     556.756
  H      366.130     117.307     556.576
  H      361.947     122.196     557.033
  H      362.147     118.718     555.317
  H      360.653     119.311     557.638
  H      359.934     121.463     556.774
  H      359.405     120.053     554.115
  H      360.014     122.247     553.137
  H      367.667     120.771     559.038
  H      366.384     121.988     559.069
  H      358.584     122.365     554.187
  P      357.290     121.589     556.902
  C      356.689     120.800     559.266
  O      357.501     121.659     558.495
  O      355.871     121.563     556.450
  O      358.040     122.914     556.394
  H      357.380     123.626     556.251
  H      355.692     121.236     559.381
  H      357.138     120.686     560.257
  H      356.605     119.814     558.813
  H      362.165     126.375     552.771
  H      362.528     125.225     554.035
  H      361.790     126.758     554.434

 3  4  5  6  7  8  9  10  11  12  22  25  29  30  31  32 0
 6-311+G(2d,p)
 ****
 33  36  37 0
 6-311+G(2d,p)
 ****
 1  2  13  14  15  16  17  18  19  20  21  23  24  26 0
 3-21G
 ****
 27  28  34  35  38  39  40  41  42  43  44  45  46  47  48 0
 3-21G
 ****


