%nproc=1
%NoSave
%Mem=1900MB
#P OB98/GEN NMR

erre ene a

0 1
  C      -17.252      33.099      26.203
  O      -17.461      33.376      24.833
  P      -17.718      32.186      23.790
  C      -19.418      33.805      22.722
  O      -18.352      32.888      22.491
  C      -19.566      34.772      21.547
  O      -18.551      35.793      21.600
  C      -19.426      34.116      20.181
  O      -20.609      33.417      19.839
  C      -19.127      35.325      19.305
  O      -20.333      36.011      18.935
  C      -18.268      36.200      20.244
  N      -16.847      36.113      19.938
  C      -16.431      36.769      18.773
  O      -17.250      37.345      18.056
  N      -15.103      36.713      18.424
  C      -14.273      36.042      19.160
  N      -12.974      36.015      18.755
  C      -14.677      35.311      20.378
  C      -15.965      35.388      20.703
  O      -18.480      31.022      24.325
  O      -16.239      31.807      23.303
  H      -20.053      36.802      18.431
  H      -15.748      31.306      23.998
  H      -13.950      34.757      20.952
  H      -16.348      34.879      21.579
  H      -18.570      37.253      20.170
  H      -18.620      35.044      18.377
  H      -18.563      33.441      20.181
  H      -20.546      35.262      21.633
  H      -12.745      36.503      17.899
  H      -19.193      34.372      23.630
  H      -12.255      35.494      19.232
  H      -20.346      33.248      22.885
  P      -20.529      32.133      18.889
  C      -22.629      30.918      19.722
  O      -22.023      31.609      18.647
  O      -19.547      31.088      19.305
  O      -20.129      32.747      17.464
  H      -19.435      32.191      17.062
  H      -23.712      30.913      19.571
  H      -22.405      31.402      20.676
  H      -22.269      29.886      19.741
  H      -17.100      34.016      26.733
  H      -16.389      32.476      26.313
  H      -18.109      32.596      26.600

 3  4  5  6  7  8  9  10  11  12  13  23  27  28  29  30  32 0
 6-311+G(2d,p)
 ****
 34  35 0
 6-311+G(2d,p)
 ****
 1  2  14  15  16  17  18  19  20  21  22  24  25  26 0
 3-21G
 ****
 31  33  36  37  38  39  40  41  42  43  44  45  46 0
 3-21G
 ****


