%nproc=1
%NoSave
%Mem=1900MB
#P OB98/GEN NMR

erre ene a

0 1
  C      -95.047     -27.976     -33.060
  O      -95.941     -28.299     -32.013
  H      -94.123     -27.586     -32.623
  H      -95.473     -27.214     -33.717
  H      -94.808     -28.873     -33.638
  P      -97.465     -28.628     -32.395
  C      -98.571     -30.372     -33.940
  O      -97.383     -29.644     -33.639
  C      -98.853     -30.374     -35.442
  O      -99.020     -29.026     -35.933
  C      -97.732     -30.958     -36.285
  O      -97.517     -32.340     -36.107
  C      -98.074     -30.432     -37.670
  O      -99.060     -31.226     -38.327
  C      -98.656     -29.036     -37.332
  N      -97.730     -27.956     -37.656
  C      -97.859     -27.403     -38.924
  O      -98.678     -27.794     -39.756
  N      -96.984     -26.395     -39.227
  C      -95.987     -25.932     -38.419
  O      -95.221     -25.037     -38.758
  C      -95.874     -26.582     -37.104
  C      -96.739     -27.549     -36.785
  O      -98.342     -27.436     -32.641
  O      -97.967     -29.562     -31.198
  H      -99.127     -30.896     -39.244
  H      -98.954     -29.631     -31.188
  H      -97.072     -25.970     -40.136
  H      -95.087     -26.249     -36.442
  H      -96.677     -28.043     -35.819
  H      -99.584     -28.866     -37.894
  H      -97.200     -30.394     -38.325
  H      -96.792     -30.471     -35.993
  H      -99.796     -30.906     -35.610
  H      -99.402     -29.884     -33.418
  H      -98.474     -31.399     -33.572
  P      -96.135     -33.071     -36.421
  C      -93.685     -32.918     -35.524
  O      -94.964     -32.307     -35.635
  O      -95.892     -33.460     -37.842
  O      -96.285     -34.430     -35.560
  H      -95.827     -35.137     -36.059
  H      -93.030     -32.276     -34.973
  H      -93.283     -33.084     -36.502
  H      -93.780     -33.854     -35.014

 6  7  8  9  10  11  12  13  14  15  16  26  31  32  33  34  35 0
 6-311+G(2d,p)
 ****
 36  37 0
 6-311+G(2d,p)
 ****
 1  2  3  4  5  17  18  19  20  21  22  23  24  25 0
 3-21G
 ****
 27  28  29  30  38  39  40  41  42  43  44  45 0
 3-21G
 ****


