%nproc=1
%NoSave
%Mem=1900MB
#P OB98/GEN NMR

erre ene a

0 1
  C     -331.198    -164.986    -320.963
  O     -332.258    -164.087    -321.231
  H     -330.594    -164.583    -320.147
  H     -330.569    -165.088    -321.851
  H     -331.590    -165.964    -320.669
  P     -333.395    -164.603    -322.238
  C     -334.755    -165.703    -320.285
  O     -334.111    -165.864    -321.540
  C     -335.558    -166.956    -319.942
  O     -336.060    -166.890    -318.591
  C     -336.811    -167.141    -320.782
  O     -336.524    -167.538    -322.105
  C     -337.539    -168.209    -319.971
  O     -337.076    -169.525    -320.299
  C     -337.149    -167.837    -318.519
  N     -338.284    -167.323    -317.775
  C     -339.109    -168.295    -317.192
  O     -338.832    -169.489    -317.307
  N     -340.232    -167.885    -316.522
  C     -340.529    -166.625    -316.465
  N     -341.674    -166.287    -315.817
  C     -339.690    -165.569    -317.073
  C     -338.592    -165.981    -317.706
  O     -332.537    -165.273    -323.412
  O     -334.345    -163.552    -322.699
  H     -337.625    -170.148    -319.778
  H     -331.849    -165.885    -323.093
  H     -339.970    -164.529    -316.985
  H     -337.917    -165.280    -318.180
  H     -336.763    -168.720    -317.990
  H     -338.614    -168.194    -320.159
  H     -337.418    -166.229    -320.762
  H     -334.889    -167.823    -320.023
  H     -342.246    -167.047    -315.465
  H     -335.410    -164.822    -320.296
  H     -342.044    -165.349    -315.780
  H     -333.980    -165.527    -319.530
  P     -337.693    -167.937    -323.126
  C     -338.374    -165.451    -323.245
  O     -338.816    -166.788    -323.014
  O     -338.221    -169.322    -322.987
  O     -337.045    -167.626    -324.559
  H     -336.772    -166.702    -324.691
  H     -339.201    -164.780    -323.144
  H     -337.971    -165.374    -324.233
  H     -337.619    -165.197    -322.531

 6  7  8  9  10  11  12  13  14  15  16  26  30  31  32  33  35 0
 6-311+G(2d,p)
 ****
 37  38 0
 6-311+G(2d,p)
 ****
 1  2  3  4  5  17  18  19  20  21  22  23  24  25 0
 3-21G
 ****
 27  28  29  34  36  39  40  41  42  43  44  45  46 0
 3-21G
 ****


