%nproc=1
%NoSave
%Mem=1900MB
#P OB98/GEN NMR

erre ene a

0 1
  C      -29.950     -39.702     -77.296
  O      -30.158     -40.525     -76.166
  H      -29.226     -40.190     -77.955
  H      -29.546     -38.734     -76.985
  H      -30.887     -39.558     -77.842
  P      -31.313     -40.080     -75.150
  C      -33.143     -41.622     -76.233
  O      -32.718     -40.307     -75.899
  C      -34.220     -42.086     -75.253
  O      -35.416     -41.290     -75.375
  C      -34.702     -43.507     -75.497
  O      -33.746     -44.479     -75.143
  C      -35.952     -43.523     -74.629
  O      -35.617     -43.708     -73.247
  C      -36.513     -42.101     -74.872
  N      -37.649     -42.095     -75.783
  C      -38.911     -42.185     -75.182
  O      -39.012     -42.251     -73.956
  N      -40.020     -42.228     -75.988
  C      -39.890     -42.161     -77.275
  N      -41.026     -42.216     -78.018
  C      -38.578     -42.038     -77.947
  C      -37.515     -42.018     -77.149
  O      -31.173     -38.488     -75.136
  O      -31.258     -40.718     -73.801
  H      -35.348     -44.643     -73.151
  H      -31.196     -38.087     -76.021
  H      -38.518     -41.976     -79.026
  H      -36.516     -41.931     -77.562
  H      -36.832     -41.647     -73.926
  H      -36.630     -44.335     -74.901
  H      -35.019     -43.625     -76.540
  H      -33.829     -41.963     -74.235
  H      -41.904     -42.321     -77.522
  H      -32.298     -42.315     -76.238
  H      -41.043     -42.207     -79.027
  H      -33.548     -41.590     -77.250
  P      -33.225     -45.543     -76.223
  C      -30.798     -44.698     -76.367
  O      -32.049     -44.817     -77.039
  O      -34.288     -46.154     -77.075
  O      -32.417     -46.603     -75.335
  H      -31.667     -46.230     -74.838
  H      -30.097     -44.201     -77.004
  H      -30.430     -45.673     -76.123
  H      -30.928     -44.131     -75.469

 6  7  8  9  10  11  12  13  14  15  16  26  30  31  32  33  35 0
 6-311+G(2d,p)
 ****
 37  38 0
 6-311+G(2d,p)
 ****
 1  2  3  4  5  17  18  19  20  21  22  23  24  25 0
 3-21G
 ****
 27  28  29  34  36  39  40  41  42  43  44  45  46 0
 3-21G
 ****


