%nproc=1
%NoSave
%Mem=1900MB
#P OB98/GEN NMR

erre ene a

0 1
  C      -87.529     109.440      12.526
  O      -88.019     110.768      12.469
  P      -89.526     110.967      11.944
  C      -90.641     110.967       9.582
  O      -89.446     110.983      10.345
  C      -90.461     111.815       8.322
  O      -90.457     113.216       8.657
  C      -89.160     111.554       7.575
  O      -89.281     110.405       6.754
  C      -88.992     112.853       6.795
  O      -89.802     112.846       5.603
  C      -89.499     113.897       7.800
  N      -87.953     118.176      10.001
  C      -88.986     117.959       9.108
  N      -89.742     119.033       8.792
  N      -89.254     116.796       8.576
  C      -88.407     115.817       8.974
  C      -87.342     115.911       9.839
  C      -87.089     117.191      10.459
  O      -86.251     117.414      11.329
  N      -86.702     114.708       9.980
  C      -87.400     113.883       9.225
  N      -88.457     114.501       8.610
  O      -89.847     112.482      12.336
  O      -90.525     110.003      12.500
  H      -89.830     113.745       5.230
  H      -90.361     112.523      13.165
  H      -87.806     119.090      10.392
  H      -87.194     112.829       9.110
  H      -90.035     114.717       7.307
  H      -87.959     113.007       6.469
  H      -89.579     119.963       9.143
  H      -88.329     111.438       8.280
  H      -90.501     118.894       8.135
  H      -91.322     111.631       7.668
  H      -91.455     111.382      10.182
  H      -90.886     109.932       9.321
  P      -88.187     109.247       6.935
  C      -85.599     109.226       6.734
  O      -86.823     109.778       6.289
  O      -88.679     108.114       5.918
  O      -88.072     108.716       8.325
  H      -88.498     107.232       6.296
  H      -84.879     109.262       5.913
  H      -85.716     108.188       7.058
  H      -85.218     109.821       7.567
  H      -86.523     109.446      12.889
  H      -87.552     109.009      11.547
  H      -88.142     108.862      13.185

 3  4  5  6  7  8  9  10  11  12  23  26  30  31 0
 6-311+G(2d,p)
 ****
 33  35  36  37  38 0
 6-311+G(2d,p)
 ****
 1  2  13  14  15  16  17  18  19  20  21  22  24  25 0
 3-21G
 ****
 27  28  29  32  34  39  40  41  42  43  44  45  46  47  48  49 0
 3-21G
 ****


