%nproc=1
%NoSave
%Mem=1900MB
#P OB98/GEN NMR

erre ene a

0 1
  C      207.154    -209.412     297.647
  O      207.608    -210.532     296.906
  H      206.300    -208.968     297.127
  H      207.940    -208.656     297.733
  H      206.833    -209.725     298.646
  P      208.950    -211.263     297.385
  C      210.920    -210.681     295.804
  O      210.150    -210.295     296.940
  C      210.456    -209.908     294.571
  O      210.246    -208.521     294.900
  C      211.477    -209.917     293.440
  O      211.481    -211.165     292.770
  C      211.005    -208.735     292.618
  O      209.889    -209.087     291.791
  C      210.583    -207.741     293.726
  N      211.615    -206.752     294.028
  C      211.959    -205.885     292.986
  O      211.402    -205.971     291.892
  N      212.946    -204.957     293.210
  C      213.525    -204.885     294.368
  N      214.493    -203.947     294.519
  C      213.179    -205.776     295.497
  C      212.227    -206.677     295.258
  O      209.124    -212.694     296.970
  O      208.923    -211.099     298.978
  H      209.812    -208.363     291.132
  H      208.458    -211.850     299.392
  H      213.685    -205.674     296.447
  H      211.915    -207.366     296.037
  H      209.669    -207.204     293.433
  H      211.794    -208.355     291.969
  H      212.477    -209.685     293.830
  H      209.497    -210.328     294.240
  H      214.709    -203.365     293.712
  H      210.763    -211.756     295.659
  H      214.952    -203.739     295.398
  H      211.987    -210.506     295.984
  P      212.602    -211.502     291.676
  C      212.042    -211.426     289.158
  O      212.179    -210.674     290.363
  O      212.868    -212.953     291.459
  O      213.880    -210.691     292.205
  H      214.290    -211.132     292.994
  H      211.760    -210.772     288.360
  H      211.289    -212.175     289.289
  H      212.974    -211.895     288.922

 6  7  8  9  10  11  12  13  14  15  16  26  30  31  32  33  35 0
 6-311+G(2d,p)
 ****
 37  38 0
 6-311+G(2d,p)
 ****
 1  2  3  4  5  17  18  19  20  21  22  23  24  25 0
 3-21G
 ****
 27  28  29  34  36  39  40  41  42  43  44  45  46 0
 3-21G
 ****


