%nproc=1
%NoSave
%Mem=1900MB
#P OB98/GEN NMR

erre ene a

0 1
  C     -908.202     350.482    -391.649
  O     -907.120     351.389    -391.703
  H     -909.055     350.937    -392.165
  H     -908.489     350.294    -390.611
  H     -907.948     349.546    -392.148
  P     -905.699     350.922    -391.099
  C     -904.092     351.733    -392.941
  O     -904.746     350.617    -392.351
  C     -904.355     351.771    -394.448
  O     -905.790     351.782    -394.680
  C     -903.768     353.003    -395.138
  O     -903.269     352.622    -396.423
  C     -904.962     353.925    -395.314
  O     -904.806     354.824    -396.410
  C     -906.106     352.924    -395.499
  N     -910.637     354.304    -397.260
  C     -909.576     353.685    -397.897
  N     -909.738     353.414    -399.213
  N     -908.452     353.365    -397.300
  C     -908.436     353.682    -395.986
  C     -909.407     354.294    -395.243
  C     -910.634     354.663    -395.918
  O     -911.599     355.225    -395.398
  N     -908.992     354.480    -393.943
  C     -907.775     353.970    -393.906
  N     -907.393     353.483    -395.122
  O     -905.766     349.831    -390.084
  O     -905.087     352.262    -390.487
  H     -905.565     355.443    -396.375
  H     -905.209     352.298    -389.520
  H     -911.463     354.548    -397.761
  H     -907.141     353.945    -393.032
  H     -906.198     352.582    -396.543
  H     -905.109     354.514    -394.401
  H     -910.576     353.618    -399.726
  H     -902.965     353.474    -394.567
  H     -908.984     352.935    -399.701
  H     -903.960     350.851    -394.896
  H     -903.024     351.640    -392.749
  H     -904.461     352.651    -392.478
  P     -901.748     352.116    -396.546
  C     -901.853     349.695    -397.430
  O     -901.725     350.529    -396.284
  O     -900.742     352.899    -395.780
  O     -901.475     352.202    -398.129
  H     -900.533     352.390    -398.264
  H     -901.824     348.669    -397.129
  H     -901.047     349.892    -398.106
  H     -902.784     349.898    -397.916

 6  7  8  9  10  11  12  13  14  15  26  29  33  34 0
 6-311+G(2d,p)
 ****
 36  38  39  40  41 0
 6-311+G(2d,p)
 ****
 1  2  3  4  5  16  17  18  19  20  21  22  23  24  25 0
 3-21G
 ****
 27  28  30  31  32  35  37  42  43  44  45  46  47 0
 3-21G
 ****
 48  49 0
 3-21G
 ****


