%nproc=1
%NoSave
%Mem=1900MB
#P OB98/GEN NMR

erre ene a

0 1
  C      -41.153     323.588     -98.189
  O      -42.345     323.972     -97.525
  P      -42.227     324.424     -95.987
  C      -44.170     323.026     -94.980
  O      -43.702     324.311     -95.368
  C      -45.653     323.064     -94.599
  O      -45.791     323.710     -93.311
  C      -46.536     323.809     -95.602
  O      -47.785     323.123     -95.677
  C      -46.753     325.160     -94.945
  O      -47.950     325.783     -95.409
  C      -46.756     324.772     -93.459
  N      -46.443     325.906     -92.592
  C      -47.519     326.540     -91.967
  O      -48.673     326.190     -92.218
  N      -47.270     327.587     -91.115
  C      -46.058     328.031     -90.984
  N      -45.861     329.069     -90.129
  C      -44.911     327.468     -91.722
  C      -45.168     326.405     -92.483
  O      -41.990     326.001     -96.096
  O      -41.143     323.737     -95.220
  H      -47.799     326.079     -96.334
  H      -41.429     326.319     -95.364
  H      -43.925     327.898     -91.608
  H      -44.383     325.914     -93.043
  H      -47.738     324.371     -93.166
  H      -45.909     325.823     -95.167
  H      -46.087     323.872     -96.598
  H      -46.001     322.031     -94.481
  H      -46.665     329.447     -89.645
  H      -43.603     322.689     -94.104
  H      -44.952     329.479     -89.964
  H      -43.997     322.316     -95.793
  P      -48.138     322.364     -97.048
  C      -50.445     323.476     -97.245
  O      -49.738     322.264     -97.066
  O      -47.728     320.855     -96.688
  O      -47.471     322.821     -98.300
  H      -47.835     320.289     -97.474
  H      -51.506     323.247     -97.375
  H      -50.085     324.001     -98.133
  H      -50.329     324.109     -96.360
  H      -41.379     323.314     -99.198
  H      -40.716     322.753     -97.682
  H      -40.464     324.407     -98.188

 3  4  5  6  7  8  9  10  11  12  13  21  23  27  28  29  30  32 0
 6-311+G(2d,p)
 ****
 34  35 0
 6-311+G(2d,p)
 ****
 1  2  14  15  16  17  18  19  20  22  24  25  26 0
 3-21G
 ****
 31  33  36  37  38  39  40  41  42  43  44  45  46 0
 3-21G
 ****


