%nproc=1
%NoSave
%Mem=1900MB
#P OB98/GEN NMR

erre ene a

0 1
  C        5.038      41.562      96.387
  O        4.400      41.051      95.234
  H        4.817      40.903      97.232
  H        4.661      42.563      96.614
  H        6.121      41.596      96.240
  P        4.634      41.855      93.865
  C        2.236      42.809      94.186
  O        3.599      43.081      93.880
  C        1.401      44.073      93.995
  O        1.798      45.062      94.972
  C        1.581      44.742      92.637
  O        0.830      44.095      91.623
  C        1.100      46.157      92.939
  O       -0.328      46.255      92.862
  C        1.562      46.362      94.388
  N        3.394      51.104      93.991
  C        2.136      50.612      93.925
  N        1.729      49.331      94.061
  C        2.778      48.527      94.296
  C        4.113      48.882      94.383
  C        4.413      50.244      94.223
  N        5.696      50.740      94.254
  N        4.901      47.765      94.589
  C        4.056      46.755      94.635
  N        2.763      47.170      94.467
  O        4.031      40.862      92.761
  O        6.052      42.220      93.575
  H       -0.564      46.170      91.918
  H        4.748      40.317      92.386
  H        1.354      51.343      93.733
  H        4.328      45.717      94.776
  H        0.797      46.858      95.000
  H        1.513      46.876      92.231
  H        2.645      44.780      92.370
  H        0.346      43.825      94.171
  H        2.158      42.479      95.229
  H        1.878      42.007      93.531
  H        5.838      51.728      94.107
  H        6.471      50.094      94.319
  P        1.437      44.040      90.142
  C        0.344      46.306      89.482
  O        1.539      45.546      89.600
  O        0.247      43.404      89.282
  O        2.700      43.254      90.014
  H        0.407      42.455      89.126
  H        0.577      47.282      89.110
  H       -0.120      46.392      90.442
  H       -0.325      45.817      88.805

 6  7  8  9  10  11  12  13  14  15  25  28  32  33  34  35 0
 6-311+G(2d,p)
 ****
 36  37  40 0
 6-311+G(2d,p)
 ****
 1  2  3  4  5  16  17  18  19  20  21  22  23  24 0
 3-21G
 ****
 26  27  29  30  31  38  39 41  42  43  44  45  46  47  48 0
 3-21G
 ****


