%nproc=1
%NoSave
%Mem=1900MB
#P OB98/GEN NMR

erre ene a

0 1
  C      -86.142     -70.691      23.206
  O      -86.736     -69.632      23.932
  P      -86.166     -69.201      25.363
  C      -86.562     -70.001      27.763
  O      -86.504     -70.384      26.395
  C      -86.765     -71.213      28.671
  O      -85.581     -72.054      28.610
  C      -87.008     -70.874      30.149
  O      -87.903     -71.868      30.658
  C      -85.633     -71.063      30.766
  O      -85.681     -71.266      32.173
  C      -85.139     -72.264      29.967
  N      -81.226     -75.544      29.728
  C      -82.562     -75.737      29.720
  N      -83.539     -74.813      29.814
  C      -83.020     -73.580      29.921
  C      -81.680     -73.231      29.975
  C      -80.753     -74.281      29.854
  N      -79.388     -74.099      29.825
  N      -81.546     -71.866      30.149
  C      -82.778     -71.406      30.198
  N      -83.699     -72.397      30.000
  O      -86.566     -67.840      25.825
  O      -84.578     -69.310      25.196
  H      -85.877     -70.412      32.602
  H      -84.189     -68.416      25.138
  H      -82.889     -76.768      29.621
  H      -83.058     -70.377      30.373
  H      -85.574     -73.204      30.324
  H      -85.018     -70.176      30.573
  H      -87.409     -69.870      30.314
  H      -87.599     -71.803      28.272
  H      -87.405     -69.314      27.886
  H      -78.823     -74.903      29.602
  H      -79.021     -73.166      29.650
  H      -85.643     -69.472      28.040
  P      -88.596     -71.660      32.088
  C      -87.756     -71.164      34.453
  O      -87.416     -71.654      33.170
  O      -89.733     -72.580      32.386
  O      -89.067     -70.128      32.056
  H      -89.736     -69.979      32.750
  H      -87.742     -70.071      34.441
  H      -87.018     -71.521      35.177
  H      -88.748     -71.509      34.757
  H      -86.662     -70.825      22.281
  H      -86.197     -71.592      23.780
  H      -85.117     -70.457      23.008

 3  4  5  6  7  8  9  10  11  12  22  25  29  30  31  32 0
 6-311+G(2d,p)
 ****
 33  36  37 0
 6-311+G(2d,p)
 ****
 1  2  13  14  15  16  17  18  19  20  21  23  24  26 0
 3-21G
 ****
 27  28  34  35  38  39  40  41  42  43  44  45  46  47  48 0
 3-21G
 ****


