%nproc=1
%NoSave
%Mem=1900MB
#P OB98/GEN NMR

erre ene a

0 1
  C     -553.992    -321.550    -274.699
  O     -554.548    -322.708    -275.293
  P     -555.157    -323.882    -274.373
  C     -553.717    -325.665    -275.564
  O     -555.039    -325.234    -275.235
  C     -553.765    -326.630    -276.738
  O     -554.657    -327.745    -276.473
  C     -554.293    -326.024    -278.031
  O     -553.523    -325.011    -278.636
  C     -554.575    -327.264    -278.856
  O     -553.382    -327.765    -279.465
  C     -555.081    -328.250    -277.764
  N     -556.525    -328.438    -277.825
  C     -556.969    -329.716    -278.102
  O     -556.213    -330.674    -278.292
  N     -558.333    -329.881    -278.188
  C     -559.264    -328.898    -278.080
  O     -560.472    -329.109    -278.204
  C     -558.732    -327.557    -277.791
  C     -557.418    -327.377    -277.682
  O     -556.515    -323.613    -273.811
  O     -554.027    -324.100    -273.261
  H     -553.164    -327.176    -280.210
  H     -553.143    -324.352    -273.603
  H     -558.665    -330.815    -278.402
  H     -559.460    -326.749    -277.681
  H     -557.000    -326.390    -277.473
  H     -554.601    -329.233    -277.885
  H     -555.291    -327.071    -279.657
  H     -555.262    -325.556    -277.805
  H     -552.761    -327.053    -276.878
  H     -553.292    -326.170    -274.701
  H     -553.087    -324.797    -275.782
  P     -554.149    -323.610    -279.129
  C     -553.350    -324.123    -281.542
  O     -553.414    -323.189    -280.486
  O     -554.340    -322.548    -278.091
  O     -555.582    -324.072    -279.673
  H     -556.222    -323.339    -279.536
  H     -552.781    -323.688    -282.370
  H     -554.358    -324.350    -281.904
  H     -552.835    -325.033    -281.225
  H     -553.642    -320.889    -275.465
  H     -553.174    -321.830    -274.068
  H     -554.739    -321.055    -274.115

 3  4  5  6  7  8  9  10  11  12  13  23  28  29  30  31  32 0
 6-311+G(2d,p)
 ****
 33  34 0
 6-311+G(2d,p)
 ****
 1  2  14  15  16  17  18  19  20  21  22  24  25  26  27 0
 3-21G
 ****
 35  36  37  38  39  40  41  42  43  44  45 0
 3-21G
 ****


