%nproc=1
%NoSave
%Mem=1900MB
#P OB98/GEN NMR

erre ene a

0 1
  C      135.458     307.737    -508.506
  O      134.658     308.886    -508.685
  H      135.523     307.202    -509.457
  H      134.999     307.075    -507.765
  H      136.467     308.017    -508.188
  P      134.580     309.912    -507.450
  C      135.399     312.402    -507.261
  O      134.876     311.364    -508.072
  C      136.404     313.245    -508.054
  O      137.449     312.365    -508.557
  C      135.791     313.976    -509.248
  O      136.449     315.238    -509.397
  C      136.155     313.086    -510.428
  O      136.154     313.798    -511.661
  C      137.527     312.548    -509.984
  N      137.882     311.302    -510.664
  C      139.174     311.220    -511.194
  O      139.949     312.174    -511.089
  N      139.548     310.083    -511.870
  C      138.680     309.138    -512.053
  N      139.104     308.045    -512.748
  C      137.296     309.194    -511.547
  C      136.967     310.289    -510.865
  O      135.918     309.562    -506.646
  O      133.327     309.808    -506.640
  H      136.593     313.239    -512.346
  H      136.697     309.460    -507.220
  H      136.606     308.379    -511.739
  H      135.973     310.413    -510.448
  H      138.313     313.284    -510.185
  H      135.431     312.263    -510.514
  H      134.717     314.127    -509.147
  H      136.886     313.949    -507.363
  H      140.057     308.053    -513.092
  H      135.891     311.985    -506.378
  H      138.506     307.274    -513.000
  H      134.564     313.027    -506.928
  P      135.655     316.581    -509.038
  C      136.341     318.459    -507.391
  O      136.698     317.698    -508.537
  O      134.448     316.417    -508.180
  O      135.238     317.140    -510.489
  H      134.324     317.485    -510.423
  H      137.120     319.159    -507.171
  H      136.204     317.804    -506.556
  H      135.430     318.987    -507.583

 6  7  8  9  10  11  12  13  14  15  16  26  30  31  32  33  35 0
 6-311+G(2d,p)
 ****
 37  38 0
 6-311+G(2d,p)
 ****
 1  2  3  4  5  17  18  19  20  21  22  23  24  25 0
 3-21G
 ****
 27  28  29  34  36  39  40  41  42  43  44  45  46 0
 3-21G
 ****


