%nproc=1
%NoSave
%Mem=1900MB
#P OB98/GEN NMR

erre ene a

0 1
  C      -15.256    -896.310    -722.772
  O      -15.434    -897.000    -721.528
  P      -14.575    -898.320    -721.260
  C      -12.668    -897.220    -719.804
  O      -13.064    -897.930    -720.953
  C      -11.938    -898.150    -718.831
  O      -10.744    -898.690    -719.454
  C      -11.495    -897.470    -717.536
  O      -12.517    -897.490    -716.556
  C      -10.277    -898.300    -717.149
  O      -10.693    -899.550    -716.548
  C       -9.629    -898.550    -718.537
  N       -8.711    -897.520    -719.069
  C       -7.370    -897.510    -718.663
  O       -6.877    -898.310    -717.878
  N       -6.581    -896.530    -719.222
  C       -6.930    -895.680    -720.242
  O       -6.168    -894.870    -720.723
  C       -8.309    -895.830    -720.710
  C       -9.119    -896.700    -720.124
  O      -14.504    -899.030    -722.689
  O      -15.163    -899.240    -720.221
  H       -9.881    -900.000    -716.243
  H      -14.970    -899.890    -722.668
  H       -5.631    -896.470    -718.880
  H       -8.612    -895.200    -721.557
  H      -10.136    -896.820    -720.476
  H       -9.077    -899.500    -718.538
  H       -9.671    -897.790    -716.401
  H      -11.159    -896.460    -717.744
  H      -12.609    -899.000    -718.609
  H      -13.534    -896.760    -719.299
  H      -12.009    -896.380    -720.085
  P      -13.393    -896.160    -716.331
  C      -15.384    -897.070    -717.702
  O      -14.375    -896.080    -717.605
  O      -12.647    -894.920    -715.982
  O      -14.403    -896.600    -715.152
  H      -14.080    -896.290    -714.279
  H      -16.072    -896.800    -718.505
  H      -15.950    -897.140    -716.752
  H      -14.925    -898.030    -717.935
  H      -15.897    -895.453    -722.800
  H      -15.502    -896.965    -723.582
  H      -14.237    -895.996    -722.863

 3  4  5  6  7  8  9  10  11  12  13  23  28  29  30  31  32 0
 6-311+G(2d,p)
 ****
 33  34 0
 6-311+G(2d,p)
 ****
 1  2  14  15  16  17  18  19  20  21  22  24  25  26  27 0
 3-21G
 ****
 35  36  37  38  39  40  41  42  43  44  45 0
 3-21G
 ****


