%nproc=1
%NoSave
%Mem=1900MB
#P OB98/GEN NMR

erre ene a

0 1
  C      241.750    -122.446     -93.272
  O      240.711    -122.854     -92.403
  H      242.385    -123.311     -93.485
  H      242.362    -121.667     -92.811
  H      241.329    -122.082     -94.212
  P      239.808    -121.715     -91.720
  C      239.952    -122.966     -89.469
  O      239.092    -122.432     -90.471
  C      239.509    -122.535     -88.071
  O      239.599    -121.101     -87.929
  C      238.061    -122.868     -87.747
  O      237.782    -124.245     -87.643
  C      237.792    -121.963     -86.556
  O      238.257    -122.522     -85.329
  C      238.635    -120.716     -86.922
  N      237.809    -119.600     -87.370
  C      237.089    -118.939     -86.380
  O      237.107    -119.266     -85.193
  N      236.310    -117.899     -86.805
  C      236.146    -117.496     -88.096
  O      235.414    -116.567     -88.416
  C      236.903    -118.257     -89.105
  C      237.687    -119.258     -88.701
  O      238.858    -121.004     -92.637
  O      240.874    -120.751     -91.019
  H      237.799    -123.375     -85.211
  H      240.464    -119.884     -90.775
  H      235.791    -117.398     -86.100
  H      236.790    -117.973     -90.141
  H      238.259    -119.834     -89.426
  H      239.213    -120.380     -86.052
  H      236.727    -121.750     -86.431
  H      237.432    -122.496     -88.565
  H      240.194    -122.983     -87.343
  H      240.962    -122.590     -89.659
  H      239.961    -124.060     -89.541
  P      236.353    -124.884     -87.942
  C      235.949    -125.814     -85.532
  O      236.111    -126.093     -86.917
  O      236.001    -125.098     -89.377
  O      235.361    -123.750     -87.360
  H      234.564    -123.745     -87.929
  H      235.798    -126.729     -84.999
  H      235.101    -125.177     -85.393
  H      236.826    -125.326     -85.162

 6  7  8  9  10  11  12  13  14  15  16  26  31  32  33  34  35 0
 6-311+G(2d,p)
 ****
 36  37 0
 6-311+G(2d,p)
 ****
 1  2  3  4  5  17  18  19  20  21  22  23  24  25 0
 3-21G
 ****
 27  28  29  30  38  39  40  41  42  43  44  45 0
 3-21G
 ****


