%nproc=1
%NoSave
%Mem=1900MB
#P OB98/GEN NMR

erre ene a

0 1
  C      194.749     559.279    -756.103
  O      195.243     558.083    -755.483
  P      194.972     556.699    -756.266
  C      197.093     555.852    -755.014
  O      195.793     555.550    -755.509
  C      197.598     554.734    -754.112
  O      196.725     554.537    -752.982
  C      197.679     553.370    -754.793
  O      198.850     553.255    -755.590
  C      197.752     552.444    -753.588
  O      199.116     552.370    -753.111
  C      196.861     553.165    -752.556
  N      193.680     550.540    -749.620
  C      194.968     550.935    -749.381
  N      195.477     550.623    -748.152
  N      195.697     551.603    -750.240
  C      195.049     551.875    -751.394
  C      193.766     551.519    -751.752
  C      192.981     550.774    -750.802
  O      191.835     550.357    -750.976
  N      193.451     551.986    -752.998
  C      194.528     552.635    -753.396
  N      195.537     552.587    -752.458
  O      195.792     556.894    -757.631
  O      193.527     556.417    -756.515
  H      199.099     551.863    -752.272
  H      195.392     556.363    -758.346
  H      193.155     550.032    -748.918
  H      194.637     553.159    -754.334
  H      197.319     553.172    -751.562
  H      197.442     551.421    -753.817
  H      194.948     550.184    -747.426
  H      196.765     553.165    -755.360
  H      196.417     550.946    -747.957
  H      198.594     555.022    -753.737
  H      197.067     556.785    -754.456
  H      197.763     556.016    -755.865
  P      198.647     552.735    -757.105
  C      200.931     553.925    -757.484
  O      200.101     552.819    -757.766
  O      197.846     553.946    -757.784
  O      197.934     551.441    -757.229
  H      197.297     553.614    -758.516
  H      200.895     554.178    -756.417
  H      200.599     554.787    -758.069
  H      201.964     553.683    -757.747
  H      194.990     560.123    -755.491
  H      193.687     559.210    -756.215
  H      195.202     559.395    -757.065

 3  4  5  6  7  8  9  10  11  12  23  26  30  31  33  0
 6-311+G(2d,p)
 ****
 35  36  37  38 0
 6-311+G(2d,p)
 ****
 1  2  13  14  15  16  17  18  19  20  21  22  24  25  27  28  29 0
 3-21G
 ****
 32  34  39  40  41  42  43  44  45  46  47  48  49 0
 3-21G
 ****


