%nproc=1
%NoSave
%Mem=1900MB
#P OB98/GEN NMR

erre ene a

0 1
  C      -92.502    -253.383       3.297
  O      -93.616    -252.900       4.042
  P      -93.424    -251.593       4.947
  C      -91.508    -252.740       6.366
  O      -91.991    -251.627       5.651
  C      -90.137    -252.398       6.974
  O      -89.184    -252.120       5.927
  C      -90.170    -251.174       7.885
  O      -90.526    -251.510       9.212
  C      -88.756    -250.646       7.752
  O      -87.851    -251.428       8.551
  C      -88.487    -250.882       6.245
  N      -88.916    -249.836       5.289
  C      -88.044    -249.404       4.295
  O      -86.900    -249.832       4.143
  N      -88.527    -248.446       3.443
  C      -89.817    -248.009       3.371
  O      -90.210    -247.191       2.548
  C      -90.736    -248.604       4.345
  C      -90.255    -249.464       5.251
  O      -94.449    -251.812       6.153
  O      -93.673    -250.303       4.227
  H      -87.055    -250.886       8.701
  H      -95.147    -251.132       6.135
  H      -87.887    -248.070       2.762
  H      -91.778    -248.323       4.297
  H      -90.925    -249.909       5.978
  H      -87.418    -251.050       6.067
  H      -88.679    -249.625       8.118
  H      -90.849    -250.418       7.479
  H      -89.780    -253.270       7.535
  H      -91.421    -253.613       5.717
  H      -92.216    -253.004       7.160
  P      -91.919    -251.004       9.820
  C      -90.680    -248.925      10.669
  O      -91.787    -249.408       9.933
  O      -92.390    -251.705      11.050
  O      -92.944    -251.180       8.598
  H      -93.429    -252.035       8.670
  H      -90.617    -247.841      10.535
  H      -89.752    -249.381      10.309
  H      -90.814    -249.146      11.729
  H      -92.791    -254.255       2.749
  H      -91.705    -253.630       3.967
  H      -92.173    -252.626       2.616

 3  4  5  6  7  8  9  10  11  12  13  23  28  29  30  31  32 0
 6-311+G(2d,p)
 ****
 33  34 0
 6-311+G(2d,p)
 ****
 1  2  14  15  16  17  18  19  20  21  22  24  25  26  27 0
 3-21G
 ****
 35  36  37  38  39  40  41  42  43  44  45 0
 3-21G
 ****


