%nproc=1
%NoSave
%Mem=1900MB
#P OB98/GEN NMR

erre ene a

0 1
  C     1510.645    -478.034    -130.633
  O     1509.972    -477.000    -129.917
  H     1509.973    -478.890    -130.779
  H     1510.953    -477.659    -131.605
  H     1511.531    -478.344    -130.075
  P     1509.443    -477.356    -128.444
  C     1510.197    -475.185    -127.224
  O     1510.425    -476.572    -127.434
  C     1509.374    -475.022    -125.940
  O     1510.041    -475.644    -124.828
  C     1509.183    -473.562    -125.507
  O     1508.094    -472.919    -126.223
  C     1508.833    -473.724    -124.045
  O     1507.452    -474.168    -123.921
  C     1509.791    -474.860    -123.631
  N     1512.660    -474.523    -119.427
  C     1511.433    -475.027    -119.610
  N     1510.754    -475.068    -120.792
  C     1511.429    -474.518    -121.760
  C     1512.690    -473.914    -121.717
  C     1513.325    -473.944    -120.460
  N     1514.566    -473.397    -120.235
  N     1513.060    -473.427    -122.962
  C     1512.060    -473.715    -123.743
  N     1511.042    -474.368    -123.077
  O     1509.872    -478.883    -128.247
  O     1507.986    -477.128    -128.210
  H     1507.212    -474.056    -122.974
  H     1509.330    -479.305    -127.545
  H     1510.961    -475.482    -118.750
  H     1512.010    -473.492    -124.799
  H     1509.345    -475.525    -122.873
  H     1508.930    -472.808    -123.471
  H     1510.116    -472.984    -125.601
  H     1508.401    -475.502    -126.063
  H     1509.615    -474.785    -128.069
  H     1514.854    -473.286    -119.268
  H     1514.989    -472.841    -120.978
  H     1511.146    -474.663    -127.130
  P     1508.510    -472.038    -127.514
  C     1506.853    -473.278    -129.137
  O     1508.223    -472.947    -128.796
  O     1510.096    -472.002    -127.442
  O     1507.891    -470.679    -127.539
  H     1510.436    -471.170    -127.855
  H     1506.842    -473.888    -130.016
  H     1506.304    -472.378    -129.321
  H     1506.403    -473.812    -128.326

 6  7  8  9  10  11  12  13  14  15  25  28  32  33  34  35 0
 6-311+G(2d,p)
 ****
 36  39  40 0
 6-311+G(2d,p)
 ****
 1  2  3  4  5  16  17  18  19  20  21  22  23  24 0
 3-21G
 ****
 26  27  29  30  31  37  38  41  42  43  44  45  46  47 0
 3-21G
 ****
 48 0
 3-21G
 ****


