%nproc=1
%NoSave
%Mem=1900MB
#P OB98/GEN NMR

erre ene a

0 1
  C     -463.988    1150.411    -434.160
  O     -464.564    1149.125    -434.385
  P     -463.799    1148.052    -435.296
  C     -463.247    1146.323    -433.458
  O     -463.966    1146.585    -434.646
  C     -464.069    1145.399    -432.535
  O     -465.212    1146.101    -431.984
  C     -464.669    1144.202    -433.272
  O     -463.756    1143.220    -433.712
  C     -465.785    1143.775    -432.352
  O     -465.287    1142.956    -431.291
  C     -466.263    1145.132    -431.790
  N     -467.536    1145.604    -432.390
  C     -468.600    1144.695    -432.314
  O     -468.475    1143.561    -431.829
  N     -469.774    1145.103    -432.869
  C     -469.965    1146.334    -433.496
  O     -471.060    1146.639    -433.998
  C     -468.817    1147.217    -433.545
  C     -467.641    1146.810    -432.991
  O     -462.406    1148.440    -435.668
  O     -464.732    1147.979    -436.599
  H     -464.717    1143.541    -430.729
  H     -464.147    1147.942    -437.384
  H     -470.545    1144.472    -432.820
  H     -468.944    1148.171    -434.033
  H     -466.792    1147.486    -433.011
  H     -466.404    1145.079    -430.689
  H     -466.561    1143.214    -432.868
  H     -465.151    1144.571    -434.199
  H     -463.444    1145.104    -431.706
  H     -462.974    1147.244    -432.938
  H     -462.285    1145.854    -433.727
  P     -464.191    1141.993    -434.671
  C     -462.928    1142.661    -436.835
  O     -463.020    1141.763    -435.736
  O     -465.608    1141.989    -435.179
  O     -463.970    1140.745    -433.688
  H     -464.651    1140.070    -433.925
  H     -462.108    1142.356    -437.481
  H     -462.714    1143.690    -436.468
  H     -463.834    1142.656    -437.427
  H     -464.636    1150.987    -433.533
  H     -463.859    1150.913    -435.096
  H     -463.037    1150.297    -433.682

 3  4  5  6  7  8  9  10  11  12  13  23  28  29  30  31  32 0
 6-311+G(2d,p)
 ****
 33  34 0
 6-311+G(2d,p)
 ****
 1  2  14  15  16  17  18  19  20  21  22  24  25  26  27 0
 3-21G
 ****
 35  36  37  38  39  40  41  42  43  44  45 0
 3-21G
 ****


