%nproc=1
%NoSave
%Mem=1900MB
#P OB98/GEN NMR

erre ene a

0 1
  C      332.335     -38.642     177.175
  O      331.597     -38.966     178.340
  P      332.226     -38.757     179.805
  C      332.592     -41.259     180.343
  O      333.198     -40.012     180.017
  C      333.423     -41.977     181.406
  O      334.806     -42.003     181.005
  C      333.399     -41.316     182.779
  O      332.181     -41.579     183.455
  C      334.649     -41.922     183.410
  O      334.372     -43.246     183.890
  C      335.612     -41.989     182.207
  N      336.572     -40.887     182.184
  C      337.895     -41.220     181.877
  O      338.218     -42.385     181.639
  N      338.832     -40.218     181.821
  C      338.480     -38.991     182.069
  N      339.429     -38.027     181.929
  C      337.106     -38.604     182.448
  C      336.213     -39.590     182.478
  O      331.229     -38.550     180.892
  O      333.254     -37.550     179.630
  H      333.781     -43.145     184.662
  H      332.845     -36.659     179.764
  H      336.869     -37.573     182.658
  H      335.183     -39.389     182.730
  H      336.161     -42.937     182.212
  H      335.041     -41.336     184.248
  H      333.528     -40.229     182.679
  H      333.064     -43.014     181.475
  H      340.310     -38.312     181.502
  H      332.557     -41.877     179.440
  H      339.187     -37.054     181.818
  H      331.569     -41.084     180.693
  P      331.681     -40.495     184.526
  C      332.525     -41.443     186.792
  O      332.750     -40.536     185.723
  O      330.367     -41.172     185.143
  O      331.411     -39.145     183.956
  H      329.565     -40.773     184.749
  H      333.441     -41.515     187.382
  H      332.269     -42.436     186.411
  H      331.721     -41.068     187.430
  H      331.744     -38.852     176.308
  H      333.231     -39.227     177.146
  H      332.588     -37.602     177.191

 3  4  5  6  7  8  9  10  11  12  13  23  27  28  29  30  32 0
 6-311+G(2d,p)
 ****
 34  35 0
 6-311+G(2d,p)
 ****
 1  2  14  15  16  17  18  19  20  21  22  24  25  26 0
 3-21G
 ****
 31  33  36  37  38  39  40  41  42  43  44  45  46 0
 3-21G
 ****


