%nproc=1
%NoSave
%Mem=1900MB
#P OB98/GEN NMR

erre ene a

0 1
  C      185.746    -104.200     452.649
  O      184.781    -104.078     451.624
  H      185.460    -103.547     453.480
  H      186.733    -103.897     452.287
  H      185.784    -105.234     453.009
  P      185.083    -104.882     450.264
  C      185.137    -102.520     449.164
  O      185.769    -103.784     449.314
  C      184.262    -102.526     447.911
  O      183.436    -101.346     447.854
  C      185.049    -102.543     446.599
  O      185.542    -103.828     446.277
  C      183.968    -102.088     445.632
  O      183.065    -103.181     445.374
  C      183.276    -100.975     446.451
  N      183.833     -99.648     446.202
  C      182.917     -98.643     445.862
  O      181.716     -98.888     445.766
  N      183.396     -97.377     445.596
  C      184.663     -97.134     445.675
  N      185.084     -95.863     445.388
  C      185.654     -98.153     446.050
  C      185.181     -99.376     446.293
  O      183.637    -105.065     449.604
  O      185.854    -106.153     450.413
  H      183.618    -103.968     445.210
  H      183.727    -105.446     448.697
  H      186.710     -97.912     446.092
  H      185.851    -100.183     446.574
  H      182.199    -100.954     446.249
  H      184.371    -101.767     444.667
  H      185.852    -101.792     446.607
  H      183.585    -103.396     447.977
  H      184.391     -95.200     445.074
  H      185.911    -101.750     449.077
  H      186.056     -95.630     445.246
  H      184.513    -102.300     450.040
  P      187.061    -103.923     445.736
  C      186.533    -104.955     443.405
  O      186.996    -103.815     444.129
  O      187.432    -105.459     445.991
  O      188.027    -102.986     446.398
  H      188.367    -105.547     446.287
  H      186.543    -104.740     442.357
  H      185.535    -105.191     443.711
  H      187.174    -105.789     443.605

 6  7  8  9  10  11  12  13  14  15  16  26  30  31  32  33  35 0
 6-311+G(2d,p)
 ****
 37  38 0
 6-311+G(2d,p)
 ****
 1  2  3  4  5  17  18  19  20  21  22  23  24  25 0
 3-21G
 ****
 27  28  29  34  36  39  40  41  42  43  44  45  46 0
 3-21G
 ****


