%nproc=1
%NoSave
%Mem=1900MB
#P OB98/GEN NMR

erre ene a

0 1
  C     -336.883       1.423     590.964
  O     -336.396       1.662     592.272
  H     -337.604       2.195     590.706
  H     -337.374       0.450     590.921
  H     -336.058       1.456     590.239
  P     -335.147       0.788     592.771
  C     -335.182      -0.399     595.087
  O     -335.169       0.838     594.382
  C     -335.271      -0.142     596.588
  O     -334.100       0.634     596.990
  C     -336.517       0.658     597.021
  O     -336.944       0.156     598.306
  C     -335.990       2.072     597.188
  O     -336.762       2.877     598.048
  C     -334.573       1.785     597.723
  N     -333.680       2.926     597.564
  C     -333.064       3.426     598.717
  O     -333.152       2.935     599.830
  N     -332.306       4.556     598.532
  C     -332.140       5.239     597.353
  O     -331.457       6.258     597.252
  C     -332.819       4.662     596.180
  C     -333.553       3.560     596.332
  O     -333.891       1.710     592.397
  O     -335.045      -0.582     592.191
  H     -333.575       1.507     591.491
  H     -337.651       2.992     597.645
  H     -331.865       4.944     599.349
  H     -332.714       5.172     595.222
  H     -334.066       3.113     595.493
  H     -334.632       1.506     598.785
  H     -335.937       2.559     596.204
  H     -337.350       0.603     596.311
  H     -335.213      -1.102     597.124
  H     -334.261      -0.959     594.868
  H     -336.045      -1.002     594.753
  P     -338.149      -0.908     598.305
  C     -338.877       0.117     600.609
  O     -338.590      -1.041     599.844
  O     -337.355      -2.257     597.980
  O     -339.232      -0.568     597.342
  H     -336.472      -2.292     598.386
  H     -339.151      -0.171     601.603
  H     -339.686       0.652     600.157
  H     -338.011       0.744     600.645

 6  7  8  9  10  11  12  13  14  15  16  27  31  32  33  34  35 0
 6-311+G(2d,p)
 ****
 36  37 0
 6-311+G(2d,p)
 ****
 1  2  3  4  5  17  18  19  20  21  22  23  24  25 0
 3-21G
 ****
 26  28  29  30  38  39  40  41  42  43  44  45 0
 3-21G
 ****


