%nproc=1
%NoSave
%Mem=1900MB
#P OB98/GEN NMR

erre ene a

0 1
  C      -85.454     300.553      11.478
  O      -86.739     300.077      11.823
  H      -85.477     301.645      11.468
  H      -85.168     300.201      10.483
  H      -84.715     300.227      12.216
  P      -86.979     298.494      11.866
  C      -87.565     296.686      10.116
  O      -87.138     298.023      10.340
  C      -86.965     296.147       8.821
  O      -85.540     295.976       8.963
  C      -87.521     294.792       8.387
  O      -88.761     294.952       7.718
  C      -86.414     294.323       7.458
  O      -86.518     295.010       6.194
  C      -85.154     294.794       8.206
  N      -82.326     290.600       8.655
  C      -82.799     291.233       7.522
  N      -82.502     290.648       6.341
  N      -83.512     292.330       7.544
  C      -83.788     292.763       8.793
  C      -83.393     292.213       9.993
  C      -82.552     291.034       9.955
  O      -82.091     290.459      10.933
  N      -83.947     292.878      11.056
  C      -84.635     293.858      10.504
  N      -84.579     293.827       9.130
  O      -88.080     298.020      12.764
  O      -85.558     297.890      12.287
  H      -87.345     294.713       5.772
  H      -85.494     297.784      13.254
  H      -81.789     289.751       8.577
  H      -85.184     294.617      11.048
  H      -84.353     295.089       7.520
  H      -86.461     293.253       7.247
  H      -82.090     289.728       6.267
  H      -87.594     294.097       9.230
  H      -82.890     291.065       5.500
  H      -87.120     296.903       8.038
  H      -88.659     296.697      10.056
  H      -87.269     296.045      10.954
  P      -89.875     293.790       7.727
  C      -90.077     291.507       6.530
  O      -89.227     292.576       6.900
  O      -91.222     294.213       7.257
  O      -89.848     293.229       9.220
  H      -90.419     293.747       9.838
  H      -89.515     290.775       5.988
  H      -90.868     291.878       5.912
  H      -90.491     291.059       7.409

 6  7  8  9  10  11  12  13  14  15  26  29  33  34 0
 6-311+G(2d,p)
 ****
 36  38  39  40  41 0
 6-311+G(2d,p)
 ****
 1  2  3  4  5  16  17  18  19  20  21  22  23  24  25 0
 3-21G
 ****
 27  28  30  31  32  35  37  42  43  44  45  46  47 0
 3-21G
 ****
 48  49 0
 3-21G
 ****


