%nproc=1
%NoSave
%Mem=1900MB
#P OB98/GEN NMR

erre ene a

0 1
  C       82.075      -7.809     -68.755
  O       81.849      -6.783     -67.784
  P       82.909      -6.652     -66.588
  C       84.444      -4.851     -67.672
  O       84.313      -6.187     -67.201
  C       85.128      -3.984     -66.614
  O       86.426      -4.503     -66.273
  C       85.378      -2.559     -67.078
  O       84.188      -1.798     -67.015
  C       86.459      -2.095     -66.109
  O       85.895      -1.497     -64.930
  C       87.200      -3.405     -65.759
  N       88.561      -3.433     -66.268
  C       89.572      -3.250     -65.319
  O       89.286      -3.057     -64.136
  N       90.878      -3.267     -65.741
  C       91.146      -3.425     -67.000
  N       92.457      -3.426     -67.358
  C       90.107      -3.593     -68.035
  C       88.847      -3.586     -67.604
  O       83.175      -8.173     -66.166
  O       82.421      -5.839     -65.434
  H       85.177      -0.911     -65.250
  H       83.354      -8.232     -65.211
  H       90.379      -3.714     -69.073
  H       88.019      -3.702     -68.295
  H       87.245      -3.538     -64.671
  H       87.107      -1.340     -66.565
  H       85.776      -2.563     -68.101
  H       84.501      -3.979     -65.711
  H       93.143      -3.306     -66.622
  H       83.463      -4.440     -67.914
  H       92.779      -3.535     -68.309
  H       85.020      -4.861     -68.604
  P       83.706      -1.055     -68.348
  C       81.379      -2.093     -68.660
  O       82.730      -2.099     -69.077
  O       85.017      -1.134     -69.268
  O       83.203       0.341     -68.211
  H       84.882      -0.625     -70.087
  H       80.792      -2.686     -69.366
  H       80.985      -1.074     -68.645
  H       81.294      -2.542     -67.667
  H       81.297      -7.782     -69.490
  H       82.076      -8.764     -68.272
  H       83.020      -7.648     -69.230

 3  4  5  6  7  8  9  10  11  12  13  21  23  27  28  29  30  32 0
 6-311+G(2d,p)
 ****
 34  35 0
 6-311+G(2d,p)
 ****
 1  2  14  15  16  17  18  19  20  22  24  25  26 0
 3-21G
 ****
 31  33  36  37  38  39  40  41  42  43  44  45  46 0
 3-21G
 ****


