%nproc=1
%NoSave
%Mem=1900MB
#P OB98/GEN NMR

erre ene a

0 1
  C      -23.317     121.733     -42.238
  O      -24.471     122.472     -42.643
  P      -24.677     123.991     -42.167
  C      -26.812     124.209     -40.773
  O      -25.405     123.996     -40.734
  C      -27.394     124.677     -39.434
  O      -26.731     125.879     -38.969
  C      -28.897     124.973     -39.454
  O      -29.384     124.617     -38.156
  C      -28.928     126.476     -39.649
  O      -30.175     127.052     -39.282
  C      -27.724     126.906     -38.800
  N      -27.218     128.220     -39.179
  C      -27.763     129.322     -38.520
  O      -28.672     129.171     -37.703
  N      -27.302     130.577     -38.837
  C      -26.444     130.721     -39.798
  N      -26.044     131.990     -40.083
  C      -25.905     129.591     -40.581
  C      -26.323     128.382     -40.212
  O      -25.304     124.885     -43.186
  O      -23.191     124.488     -41.825
  H      -30.227     127.950     -39.675
  H      -23.127     125.448     -41.989
  H      -25.211     129.762     -41.390
  H      -25.983     127.488     -40.720
  H      -27.994     126.933     -37.736
  H      -28.750     126.715     -40.704
  H      -29.437     124.432     -40.234
  H      -27.181     123.894     -38.695
  H      -26.456     132.739     -39.541
  H      -27.295     123.271     -41.064
  H      -25.471     132.224     -40.881
  H      -27.039     124.944     -41.553
  P      -30.173     123.251     -37.890
  C      -32.531     124.121     -38.370
  O      -31.479     123.283     -38.813
  O      -30.436     122.948     -36.451
  O      -29.269     122.113     -38.567
  H      -29.529     121.243     -38.212
  H      -33.265     124.226     -39.173
  H      -32.152     125.112     -38.103
  H      -33.018     123.672     -37.500
  H      -23.360     120.748     -42.654
  H      -23.291     121.669     -41.170
  H      -22.435     122.229     -42.587

 3  4  5  6  7  8  9  10  11  12  13  23  27  28  29  30  32 0
 6-311+G(2d,p)
 ****
 34  35 0
 6-311+G(2d,p)
 ****
 1  2  14  15  16  17  18  19  20  21  22  24  25  26 0
 3-21G
 ****
 31  33  36  37  38  39  40  41  42  43  44  45  46 0
 3-21G
 ****


