%nproc=1
%NoSave
%Mem=1900MB
#P OB98/GEN NMR

erre ene a

0 1
  C        4.671     371.650     -61.034
  O        5.060     370.568     -60.212
  H        5.205     371.574     -61.987
  H        4.929     372.600     -60.561
  H        3.596     371.610     -61.226
  P        4.470     370.560     -58.717
  C        4.632     372.457     -56.933
  O        5.265     371.753     -57.992
  C        5.218     373.859     -56.818
  O        5.074     374.572     -58.066
  C        4.541     374.740     -55.770
  O        4.944     374.445     -54.444
  C        5.037     376.108     -56.220
  O        6.417     376.265     -55.846
  C        4.882     375.982     -57.750
  N        3.579     376.445     -58.234
  C        3.566     377.115     -59.463
  O        4.609     377.298     -60.090
  N        2.371     377.597     -59.939
  C        1.280     377.409     -59.263
  N        0.128     377.915     -59.786
  C        1.245     376.703     -57.974
  C        2.412     376.250     -57.521
  O        5.128     369.252     -58.068
  O        2.984     370.630     -58.599
  H        6.874     375.449     -56.118
  H        4.947     369.232     -57.095
  H        0.311     376.581     -57.437
  H        2.466     375.719     -56.577
  H        5.668     376.542     -58.271
  H        4.489     376.935     -55.772
  H        3.450     374.711     -55.864
  H        6.292     373.757     -56.619
  H        0.195     378.449     -60.642
  H        4.799     371.899     -56.003
  H       -0.739     377.952     -59.268
  H        3.557     372.523     -57.117
  P        3.980     374.946     -53.255
  C        2.801     377.192     -52.682
  O        3.806     376.529     -53.432
  O        4.912     374.821     -51.963
  O        2.707     374.171     -53.112
  H        4.386     374.571     -51.177
  H        2.815     378.237     -52.913
  H        2.987     377.055     -51.637
  H        1.843     376.785     -52.930

 6  7  8  9  10  11  12  13  14  15  16  26  30  31  32  33  35 0
 6-311+G(2d,p)
 ****
 37  38 0
 6-311+G(2d,p)
 ****
 1  2  3  4  5  17  18  19  20  21  22  23  24  25 0
 3-21G
 ****
 27  28  29  34  36  39  40  41  42  43  44  45  46 0
 3-21G
 ****


