%nproc=1
%NoSave
%Mem=1900MB
#P OB98/GEN NMR

erre ene a

0 1
  C      552.659     113.167     705.942
  O      553.994     113.526     705.646
  P      555.163     112.595     706.246
  C      555.513     114.203     708.272
  O      555.220     112.878     707.818
  C      556.616     114.164     709.326
  O      556.276     113.233     710.369
  C      557.976     113.721     708.802
  O      558.604     114.744     708.060
  C      558.672     113.347     710.107
  O      559.132     114.544     710.767
  C      557.523     112.711     710.917
  N      558.896     108.356     713.245
  C      559.081     109.653     713.566
  N      558.711     110.756     712.894
  C      558.065     110.412     711.754
  C      557.821     109.143     711.277
  C      558.265     108.080     712.067
  N      558.078     106.757     711.727
  N      557.161     109.191     710.067
  C      557.000     110.479     709.832
  N      557.517     111.264     710.831
  O      556.500     113.284     705.698
  O      555.074     111.155     705.855
  H      558.341     115.074     710.995
  H      557.185     112.616     705.515
  H      559.604     109.833     714.511
  H      556.514     110.892     708.953
  H      557.551     112.974     711.978
  H      559.529     112.692     709.969
  H      557.866     112.826     708.174
  H      556.690     115.167     709.770
  H      554.610     114.635     708.720
  H      558.555     106.060     712.276
  H      557.739     106.552     710.793
  H      555.800     114.812     707.412
  P      559.842     114.342     707.127
  C      561.592     115.260     708.755
  O      561.050     114.093     708.162
  O      560.225     115.742     706.462
  O      559.563     113.215     706.175
  H      560.303     116.451     707.121
  H      562.359     114.948     709.471
  H      560.814     115.819     709.289
  H      562.054     115.892     708.000
  H      551.992     113.866     705.484
  H      552.514     113.177     707.002
  H      552.462     112.186     705.564

 3  4  5  6  7  8  9  10  11  12  22  25  29  30  31  32 0
 6-311+G(2d,p)
 ****
 33  36  37 0
 6-311+G(2d,p)
 ****
 1  2  13  14  15  16  17  18  19  20  21  23  24  26 0
 3-21G
 ****
 27  28  34  35  38  39  40  41  42  43  44  45  46  47  48 0
 3-21G
 ****


