%nproc=1
%NoSave
%Mem=1900MB
#P OB98/GEN NMR

erre ene a

0 1
  C      424.136     353.152     231.008
  O      424.582     354.074     230.034
  H      424.095     353.661     231.976
  H      424.837     352.312     231.083
  H      423.139     352.784     230.760
  P      424.734     353.572     228.514
  C      427.171     354.351     228.066
  O      425.789     354.606     227.863
  C      427.995     355.070     227.005
  O      427.505     354.801     225.676
  C      428.001     356.597     227.111
  O      428.774     357.098     228.189
  C      428.589     356.953     225.758
  O      430.003     356.716     225.765
  C      427.846     355.945     224.840
  N      426.644     356.508     224.226
  C      426.703     356.740     222.841
  O      427.717     356.479     222.208
  N      425.602     357.296     222.223
  C      424.557     357.603     222.925
  N      423.508     358.156     222.259
  C      424.464     357.401     224.387
  C      425.529     356.837     224.966
  O      423.457     353.386     227.755
  O      425.619     352.242     228.619
  H      430.345     357.014     224.898
  H      425.727     351.882     227.705
  H      423.584     357.705     224.923
  H      425.544     356.674     226.037
  H      428.517     355.582     224.046
  H      428.435     358.000     225.486
  H      426.964     356.988     227.157
  H      429.025     354.672     227.059
  H      423.593     358.300     221.257
  H      427.326     353.271     228.020
  H      422.677     358.509     222.725
  H      427.481     354.714     229.050
  P      428.074     358.187     229.148
  C      430.151     359.761     228.919
  O      429.263     359.059     229.778
  O      427.544     357.297     230.371
  O      426.987     358.985     228.507
  H      426.591     357.099     230.265
  H      430.876     360.285     229.506
  H      429.597     360.461     228.328
  H      430.648     359.066     228.275

 6  7  8  9  10  11  12  13  14  15  16  26  30  31  32  33  35 0
 6-311+G(2d,p)
 ****
 37  38 0
 6-311+G(2d,p)
 ****
 1  2  3  4  5  17  18  19  20  21  22  23  24  25 0
 3-21G
 ****
 27  28  29  34  36  39  40  41  42  43  44  45  46 0
 3-21G
 ****


