%nproc=1
%NoSave
%Mem=1900MB
#P OB98/GEN NMR

erre ene a

0 1
  C       97.432    -832.016      11.214
  O       97.243    -831.472       9.930
  H       97.333    -833.104      11.154
  H       96.661    -831.637      11.897
  H       98.420    -831.768      11.599
  P       97.434    -829.882       9.779
  C       95.071    -829.042      10.433
  O       96.426    -829.205      10.830
  C       94.229    -828.497      11.589
  O       93.839    -829.612      12.454
  C       94.961    -827.463      12.470
  O       94.002    -826.498      12.909
  C       95.388    -828.293      13.672
  O       95.639    -827.488      14.831
  C       94.185    -829.223      13.802
  N       93.936    -831.008      18.505
  C       93.498    -829.800      17.969
  N       92.911    -828.944      18.832
  N       93.636    -829.482      16.717
  C       94.221    -830.450      15.967
  C       94.691    -831.679      16.366
  C       94.559    -832.017      17.770
  O       94.937    -833.058      18.299
  N       95.232    -832.366      15.318
  C       95.093    -831.555      14.275
  N       94.474    -830.383      14.625
  O       96.755    -829.583       8.357
  O       98.842    -829.398       9.837
  H       94.833    -826.970      15.023
  H       97.430    -829.599       7.651
  H       93.821    -831.205      19.479
  H       95.409    -831.773      13.266
  H       93.310    -828.731      14.245
  H       96.297    -828.852      13.438
  H       92.735    -829.147      19.803
  H       95.796    -826.959      11.974
  H       92.551    -828.076      18.453
  H       93.303    -828.075      11.177
  H       94.666    -830.020      10.133
  H       95.017    -828.353       9.583
  P       93.831    -825.152      12.046
  C       95.240    -823.505      13.494
  O       95.135    -824.251      12.284
  O       92.698    -824.360      12.852
  O       93.447    -825.385      10.623
  H       92.209    -823.776      12.244
  H       96.161    -822.961      13.499
  H       95.217    -824.174      14.329
  H       94.421    -822.820      13.563

 6  7  8  9  10  11  12  13  14  15  26  29  33  34 0
 6-311+G(2d,p)
 ****
 36  38  39  40  41 0
 6-311+G(2d,p)
 ****
 1  2  3  4  5  16  17  18  19  20  21  22  23  24  25 0
 3-21G
 ****
 27  28  30  31  32  35  37  42  43  44  45  46  47 0
 3-21G
 ****
 48  49 0
 3-21G
 ****


