%nproc=1
%NoSave
%Mem=1900MB
#P OB98/GEN NMR

erre ene a

0 1
  C        8.973      -2.426     -39.251
  O       10.143      -3.002     -38.704
  H        8.751      -2.921     -40.200
  H        9.122      -1.360     -39.440
  H        8.125      -2.568     -38.576
  P       10.681      -2.440     -37.304
  C       12.567      -1.090     -38.438
  O       11.394      -1.043     -37.637
  C       12.950       0.315     -38.887
  O       11.924       0.869     -39.734
  C       13.145       1.302     -37.737
  O       14.430       1.144     -37.161
  C       12.976       2.620     -38.475
  O       14.174       2.917     -39.217
  C       11.822       2.290     -39.437
  N        7.175       4.009     -40.503
  C        8.302       3.947     -41.300
  N        8.182       4.457     -42.544
  N        9.445       3.451     -40.904
  C        9.433       3.045     -39.614
  C        8.386       3.070     -38.722
  C        7.110       3.570     -39.188
  O        6.082       3.626     -38.521
  N        8.771       2.634     -37.481
  C       10.040       2.309     -37.633
  N       10.494       2.554     -38.906
  O       11.530      -3.374     -36.495
  O        9.356      -2.003     -36.525
  H       14.024       3.776     -39.655
  H        9.024      -2.724     -35.961
  H        6.328       4.420     -40.860
  H       10.671       1.893     -36.858
  H       11.904       2.831     -40.386
  H       12.786       3.462     -37.811
  H        7.435       5.093     -42.791
  H       12.348       1.218     -36.991
  H        9.010       4.467     -43.125
  H       13.860       0.237     -39.494
  H       12.350      -1.724     -39.304
  H       13.394      -1.534     -37.876
  P       14.828       1.905     -35.803
  C       16.003       3.930     -36.896
  O       14.861       3.459     -36.194
  O       16.067       1.402     -35.144
  O       13.524       1.805     -34.890
  H       13.492       0.989     -34.333
  H       15.895       4.976     -37.092
  H       16.096       3.401     -37.822
  H       16.879       3.767     -36.303

 6  7  8  9  10  11  12  13  14  15  26  29  33  34 0
 6-311+G(2d,p)
 ****
 36  38  39  40  41 0
 6-311+G(2d,p)
 ****
 1  2  3  4  5  16  17  18  19  20  21  22  23  24  25 0
 3-21G
 ****
 27  28  30  31  32  35  37  42  43  44  45  46  47 0
 3-21G
 ****
 48  49 0
 3-21G
 ****


