%nproc=1
%NoSave
%Mem=1900MB
#P OB98/GEN NMR

erre ene a

0 1
  C      573.070    -235.704    -176.824
  O      572.605    -234.840    -177.864
  P      572.323    -233.303    -177.488
  C      573.194    -232.418    -179.797
  O      572.111    -232.537    -178.884
  C      572.702    -231.849    -181.140
  O      571.854    -232.835    -181.811
  C      571.901    -230.544    -181.026
  O      572.266    -229.735    -182.158
  C      570.473    -231.024    -181.143
  O      569.594    -229.972    -181.569
  C      570.631    -232.165    -182.156
  N      569.494    -233.093    -182.147
  C      568.238    -232.552    -182.411
  O      568.039    -231.334    -182.557
  N      567.199    -233.442    -182.446
  C      567.275    -234.775    -182.166
  O      566.308    -235.524    -182.214
  C      568.604    -235.267    -181.787
  C      569.634    -234.419    -181.776
  O      573.772    -232.836    -176.995
  O      571.226    -233.143    -176.489
  H      574.505    -233.234    -177.500
  H      569.911    -229.638    -182.441
  H      566.281    -233.076    -182.664
  H      568.698    -236.307    -181.493
  H      570.630    -234.741    -181.481
  H      570.733    -231.767    -183.169
  H      570.110    -231.403    -180.182
  H      572.103    -230.000    -180.096
  H      573.597    -231.697    -181.772
  H      573.642    -233.403    -179.974
  H      573.970    -231.795    -179.354
  P      573.188    -228.444    -181.899
  C      574.135    -228.395    -184.332
  O      573.417    -227.742    -183.311
  O      574.599    -229.155    -181.607
  O      572.735    -227.571    -180.772
  H      574.818    -229.843    -182.259
  H      573.981    -227.870    -185.276
  H      573.810    -229.441    -184.457
  H      575.211    -228.379    -184.097
  H      573.214    -236.689    -177.216
  H      572.346    -235.736    -176.036
  H      573.998    -235.334    -176.441

 3  4  5  6  7  8  9  10  11  12  13  24  28  29  30  31  32 0
 6-311+G(2d,p)
 ****
 33  34 0
 6-311+G(2d,p)
 ****
 1  2  14  15  16  17  18  19  20  21  22  23  25  26  27 0
 3-21G
 ****
 35  36  37  38  39  40  41  42  43  44  45 0
 3-21G
 ****


