%nproc=1
%NoSave
%Mem=1900MB
#P OB98/GEN NMR

erre ene a

0 1
  C      -91.629     -19.706     -62.932
  O      -91.604     -21.113     -62.799
  H      -92.662     -19.349     -62.948
  H      -91.116     -19.262     -62.075
  H      -91.115     -19.403     -63.848
  P      -92.329     -21.949     -63.962
  C      -90.429     -21.965     -65.719
  O      -91.171     -22.718     -64.770
  C      -88.959     -22.375     -65.677
  O      -88.416     -21.980     -64.389
  C      -88.722     -23.884     -65.852
  O      -87.727     -24.124     -66.856
  C      -88.174     -24.332     -64.510
  O      -87.212     -25.376     -64.623
  C      -87.568     -23.050     -63.951
  N      -85.119     -25.166     -60.013
  C      -84.771     -25.028     -61.310
  N      -85.424     -24.370     -62.289
  C      -86.535     -23.785     -61.808
  C      -87.006     -23.817     -60.506
  C      -86.254     -24.568     -59.586
  N      -86.638     -24.754     -58.275
  N      -88.186     -23.104     -60.392
  C      -88.445     -22.686     -61.615
  N      -87.483     -23.086     -62.507
  O      -92.813     -20.812     -64.982
  O      -93.469     -22.793     -63.500
  H      -86.926     -25.606     -63.721
  H      -93.786     -20.844     -65.050
  H      -83.846     -25.519     -61.605
  H      -89.327     -22.136     -61.918
  H      -86.563     -22.868     -64.351
  H      -89.002     -24.688     -63.887
  H      -89.636     -24.426     -66.111
  H      -88.414     -21.810     -66.443
  H      -90.509     -20.898     -65.483
  H      -86.104     -25.401     -57.718
  H      -87.540     -24.402     -57.983
  H      -90.846     -22.138     -66.717
  P      -87.919     -25.455     -67.741
  C      -88.500     -24.519     -70.094
  O      -87.511     -25.107     -69.256
  O      -89.509     -25.629     -67.795
  O      -87.257     -26.661     -67.163
  H      -89.758     -26.511     -67.456
  H      -88.087     -24.345     -71.066
  H      -88.819     -23.590     -69.671
  H      -89.337     -25.180     -70.176

 6  7  8  9  10  11  12  13  14  15  25  28  32  33  34  35 0
 6-311+G(2d,p)
 ****
 36  39  40 0
 6-311+G(2d,p)
 ****
 1  2  3  4  5  16  17  18  19  20  21  22  23  24 0
 3-21G
 ****
 26  27  29  30  31  37  38  41  42  43  44  45  46  47  48 0
 3-21G
 ****


