%nproc=1
%NoSave
%Mem=1900MB
#P OB98/GEN NMR

erre ene a

0 1
  C       73.309      71.756     106.404
  O       74.087      71.394     107.530
  P       75.453      70.582     107.332
  C       74.673      68.591     108.816
  O       75.614      69.622     108.605
  C       74.426      68.365     110.313
  O       75.700      68.066     110.934
  C       73.870      69.572     111.060
  O       73.305      69.123     112.294
  C       75.124      70.370     111.337
  O       74.948      71.303     112.399
  C       76.177      69.262     111.596
  N       77.503      69.642     111.075
  C       78.235      70.557     111.825
  O       77.856      70.986     112.913
  N       79.379      71.029     111.241
  C       79.814      70.710     109.989
  O       80.649      71.358     109.369
  C       79.136      69.570     109.353
  C       78.010      69.111     109.904
  O       76.568      71.706     107.559
  O       75.600      69.912     106.010
  H       74.972      70.786     113.238
  H       76.867      72.062     106.701
  H       79.832      71.798     111.720
  H       79.542      69.187     108.427
  H       77.459      68.304     109.428
  H       76.282      69.052     112.667
  H       75.393      70.940     110.439
  H       73.134      70.151     110.495
  H       73.773      67.494     110.446
  H       75.031      67.674     108.341
  H       73.722      68.840     108.332
  P       71.911      68.332     112.237
  C       70.542      70.366     113.002
  O       70.946      69.044     113.301
  O       71.997      66.847     112.340
  O       71.291      68.797     110.833
  H       70.601      68.168     110.554
  H       69.561      70.544     113.449
  H       70.478      70.531     111.924
  H       71.261      71.067     113.434
  H       72.439      72.289     106.728
  H       73.011      70.873     105.878
  H       73.889      72.379     105.756

 3  4  5  6  7  8  9  10  11  12  13  23  28  29  30  31  32 0
 6-311+G(2d,p)
 ****
 33  34 0
 6-311+G(2d,p)
 ****
 1  2  14  15  16  17  18  19  20  21  22  24  25  26  27 0
 3-21G
 ****
 35  36  37  38  39  40  41  42  43  44  45 0
 3-21G
 ****


