%nproc=1
%NoSave
%Mem=1900MB
#P OB98/GEN NMR

erre ene a

0 1
  C      643.591     240.865    -118.337
  O      643.586     241.457    -119.621
  H      644.474     240.227    -118.253
  H      642.699     240.245    -118.197
  H      643.637     241.633    -117.562
  P      642.345     242.383    -120.031
  C      639.994     241.919    -121.014
  O      641.116     241.391    -120.317
  C      639.124     240.790    -121.567
  O      639.827     240.088    -122.614
  C      638.742     239.736    -120.542
  O      637.734     240.220    -119.677
  C      638.328     238.591    -121.455
  O      637.007     238.806    -121.977
  C      639.383     238.710    -122.582
  N      640.518     237.806    -122.408
  C      640.240     236.441    -122.534
  O      639.094     236.056    -122.753
  N      641.277     235.550    -122.381
  C      642.478     235.976    -122.173
  N      643.458     235.043    -122.035
  C      642.824     237.410    -122.077
  C      641.803     238.257    -122.189
  O      642.594     243.385    -121.116
  O      641.922     243.091    -118.658
  H      636.752     237.975    -122.430
  H      642.356     243.961    -118.576
  H      643.841     237.718    -121.910
  H      641.965     239.331    -122.135
  H      638.925     238.499    -123.561
  H      638.321     237.630    -120.946
  H      639.628     239.418    -119.973
  H      638.230     241.245    -122.017
  H      643.178     234.068    -122.128
  H      640.383     242.534    -121.830
  H      644.446     235.258    -122.034
  H      639.402     242.562    -120.352
  P      637.689     239.816    -118.125
  C      636.787     237.817    -116.775
  O      636.931     238.401    -118.068
  O      637.143     240.860    -117.213
  O      639.206     239.405    -117.798
  H      639.762     240.212    -117.690
  H      636.271     236.884    -116.861
  H      636.228     238.477    -116.146
  H      637.754     237.652    -116.349

 6  7  8  9  10  11  12  13  14  15  16  26  30  31  32  33  35 0
 6-311+G(2d,p)
 ****
 37  38 0
 6-311+G(2d,p)
 ****
 1  2  3  4  5  17  18  19  20  21  22  23  24  25 0
 3-21G
 ****
 27  28  29  34  36  39  40  41  42  43  44  45  46 0
 3-21G
 ****


