%nproc=1
%NoSave
%Mem=1900MB
#P OB98/GEN NMR

erre ene a

0 1
  C     -547.566    -500.178     866.232
  O     -546.931    -499.490     867.287
  H     -548.215    -500.949     866.658
  H     -546.828    -500.663     865.589
  H     -548.183    -499.492     865.642
  P     -545.914    -498.302     866.920
  C     -547.647    -496.402     867.258
  O     -546.475    -497.039     867.749
  C     -548.653    -496.213     868.387
  O     -549.253    -497.472     868.781
  C     -548.074    -495.655     869.681
  O     -547.754    -494.276     869.619
  C     -549.219    -495.942     870.633
  O     -550.278    -494.989     870.419
  C     -549.630    -497.359     870.176
  N     -549.006    -498.415     870.974
  C     -549.422    -498.524     872.305
  O     -550.260    -497.753     872.770
  N     -548.842    -499.488     873.103
  C     -547.917    -500.254     872.615
  N     -547.376    -501.189     873.447
  C     -547.434    -500.163     871.220
  C     -548.021    -499.235     870.465
  O     -545.681    -498.064     865.464
  O     -544.579    -498.650     867.730
  H     -550.973    -495.188     871.073
  H     -543.913    -497.946     867.535
  H     -546.645    -500.804     870.870
  H     -547.717    -499.094     869.429
  H     -550.724    -497.480     870.227
  H     -548.931    -495.874     871.686
  H     -547.200    -496.240     870.002
  H     -549.465    -495.583     868.008
  H     -547.724    -501.228     874.396
  H     -548.065    -497.024     866.460
  H     -546.596    -501.775     873.173
  H     -547.394    -495.419     866.853
  P     -546.381    -493.807     870.312
  C     -545.020    -494.756     868.287
  O     -545.310    -493.651     869.130
  O     -545.905    -495.124     871.096
  O     -546.496    -492.617     871.207
  H     -546.148    -495.070     872.037
  H     -544.288    -494.469     867.561
  H     -545.914    -495.068     867.788
  H     -544.640    -495.564     868.876

 6  7  8  9  10  11  12  13  14  15  16  26  30  31  32  33  35 0
 6-311+G(2d,p)
 ****
 37  38 0
 6-311+G(2d,p)
 ****
 1  2  3  4  5  17  18  19  20  21  22  23  24  25 0
 3-21G
 ****
 27  28  29  34  36  39  40  41  42  43  44  45  46 0
 3-21G
 ****


