%nproc=1
%NoSave
%Mem=1900MB
#P OB98/GEN NMR

erre ene a

0 1
  C     -144.121     165.232    -207.765
  O     -144.249     164.269    -206.738
  P     -143.679     162.780    -206.854
  C     -142.494     162.948    -204.550
  O     -143.405     162.228    -205.370
  C     -142.859     162.890    -203.056
  O     -144.084     163.615    -202.833
  C     -143.132     161.441    -202.637
  O     -142.059     160.581    -202.296
  C     -144.240     161.533    -201.596
  O     -143.739     161.479    -200.257
  C     -144.875     162.900    -201.871
  N     -149.710     161.860    -200.733
  C     -148.650     162.105    -199.878
  N     -148.873     161.854    -198.569
  N     -147.478     162.534    -200.285
  C     -147.386     162.642    -201.630
  C     -148.365     162.447    -202.574
  C     -149.666     162.014    -202.111
  O     -150.608     161.704    -202.839
  N     -147.887     162.581    -203.856
  C     -146.598     162.822    -203.692
  N     -146.240     162.834    -202.358
  O     -142.649     162.536    -207.913
  O     -145.004     161.964    -207.281
  H     -143.353     160.592    -200.119
  H     -144.729     161.243    -207.880
  H     -150.566     161.454    -200.370
  H     -145.892     162.963    -204.493
  H     -144.891     163.512    -200.961
  H     -144.941     160.693    -201.697
  H     -149.705     161.389    -198.244
  H     -143.599     160.946    -203.500
  H     -148.071     161.860    -197.945
  H     -142.098     163.390    -202.448
  H     -142.482     163.981    -204.900
  H     -141.488     162.551    -204.688
  P     -141.979     159.008    -202.560
  C     -139.430     159.091    -202.728
  O     -140.542     158.491    -202.088
  O     -141.907     158.881    -204.156
  O     -143.134     158.221    -202.032
  H     -142.201     157.987    -204.430
  H     -138.542     158.475    -202.567
  H     -139.254     160.078    -202.296
  H     -139.603     159.189    -203.806
  H     -144.579     166.148    -207.454
  H     -144.603     164.875    -208.651
  H     -143.084     165.403    -207.967

 3  4  5  6  7  8  9  10  11  12  23  26  30  31 0
 6-311+G(2d,p)
 ****
 33  35  36  37  38 0
 6-311+G(2d,p)
 ****
 1  2  13  14  15  16  17  18  19  20  21  22  24  25 0
 3-21G
 ****
 27  28  29  32  34  39  40  41  42  43  44  45  46  47  48  49 0
 3-21G
 ****


