%nproc=1
%NoSave
%Mem=1900MB
#P OB98/GEN NMR

erre ene a

0 1
  C      472.923     525.461     347.309
  O      471.521     525.642     347.359
  H      473.404     526.441     347.373
  H      473.218     524.990     346.364
  H      473.259     524.853     348.154
  P      470.581     524.354     347.167
  C      470.980     524.268     344.606
  O      470.047     524.481     345.656
  C      470.507     524.951     343.325
  O      469.420     524.218     342.721
  C      469.962     526.361     343.517
  O      470.970     527.330     343.753
  C      469.267     526.560     342.181
  O      470.252     526.826     341.163
  C      468.615     525.171     341.970
  N      467.224     525.125     342.409
  C      466.245     525.295     341.420
  O      466.568     525.481     340.246
  N      464.920     525.300     341.788
  C      464.600     525.159     343.035
  N      463.273     525.210     343.352
  C      465.592     524.952     344.107
  C      466.871     524.949     343.728
  O      469.523     524.145     348.206
  O      471.604     523.131     347.043
  H      469.766     526.968     340.331
  H      471.069     522.305     346.932
  H      465.272     524.845     345.136
  H      467.665     524.828     344.462
  H      468.664     524.875     340.914
  H      468.564     527.399     342.176
  H      469.210     526.386     344.312
  H      471.345     524.934     342.613
  H      462.625     525.394     342.603
  H      471.082     523.185     344.461
  H      462.965     525.386     344.312
  H      471.956     524.680     344.877
  P      470.523     528.874     343.848
  C      471.950     529.822     341.880
  O      471.753     529.738     343.282
  O      470.556     529.157     345.423
  O      469.197     529.205     343.237
  H      469.675     529.025     345.825
  H      472.806     530.431     341.676
  H      471.086     530.257     341.424
  H      472.107     528.841     341.483

 6  7  8  9  10  11  12  13  14  15  16  26  30  31  32  33  35 0
 6-311+G(2d,p)
 ****
 37  38 0
 6-311+G(2d,p)
 ****
 1  2  3  4  5  17  18  19  20  21  22  23  24  25 0
 3-21G
 ****
 27  28  29  34  36  39  40  41  42  43  44  45  46 0
 3-21G
 ****


