%nproc=1
%NoSave
%Mem=1900MB
#P OB98/GEN NMR

erre ene a

0 1
  C     -707.491    -379.493    1525.292
  O     -707.406    -379.725    1523.886
  P     -708.363    -380.683    1523.048
  C     -706.539    -381.134    1521.190
  O     -707.854    -380.699    1521.536
  C     -706.120    -380.582    1519.817
  O     -707.093    -380.979    1518.817
  C     -706.071    -379.034    1519.781
  O     -704.947    -378.516    1519.089
  C     -707.449    -378.662    1519.247
  O     -707.521    -377.353    1518.715
  C     -707.720    -379.814    1518.277
  N     -711.936    -378.445    1515.722
  C     -710.698    -377.817    1515.766
  N     -710.561    -376.678    1515.052
  N     -709.673    -378.277    1516.465
  C     -709.981    -379.368    1517.203
  C     -711.171    -380.052    1517.251
  C     -712.268    -379.576    1516.434
  O     -713.381    -380.090    1516.340
  N     -711.082    -381.138    1518.123
  C     -709.870    -381.085    1518.568
  N     -709.148    -380.038    1518.047
  O     -709.822    -380.505    1523.263
  O     -707.963    -382.174    1523.563
  H     -706.907    -377.301    1517.969
  H     -708.780    -382.703    1523.512
  H     -712.666    -378.059    1515.163
  H     -709.442    -381.791    1519.278
  H     -707.303    -379.615    1517.288
  H     -708.152    -378.711    1520.105
  H     -711.323    -376.211    1514.599
  H     -705.953    -378.629    1520.790
  H     -709.724    -376.122    1515.266
  H     -705.139    -381.014    1519.549
  H     -706.568    -382.220    1521.165
  H     -705.835    -380.833    1521.986
  P     -703.699    -377.694    1519.668
  C     -704.398    -375.369    1518.861
  O     -703.437    -376.426    1518.742
  O     -702.411    -378.617    1519.360
  O     -703.779    -377.385    1521.147
  H     -701.995    -378.877    1520.206
  H     -704.263    -374.685    1518.005
  H     -704.204    -374.796    1519.779
  H     -705.408    -375.760    1518.849
  H     -706.725    -378.807    1525.587
  H     -707.362    -380.418    1525.815
  H     -708.450    -379.081    1525.528

 3  4  5  6  7  8  9  10  11  12  23  26  30  31 0
 6-311+G(2d,p)
 ****
 33  35  36  37  38 0
 6-311+G(2d,p)
 ****
 1  2  13  14  15  16  17  18  19  20  21  22  24  25 0
 3-21G
 ****
 27  28  29  32  34  39  40  41  42  43  44  45  46  47  48  49 0
 3-21G
 ****


