%nproc=1
%NoSave
%Mem=1900MB
#P OB98/GEN NMR

erre ene a

0 1
  C      110.826    -166.681    -429.487
  O      110.516    -165.896    -430.621
  H      111.537    -167.463    -429.759
  H      111.281    -166.037    -428.729
  H      109.919    -167.130    -429.070
  P      109.679    -166.612    -431.788
  C      110.292    -167.551    -434.133
  O      110.762    -167.081    -432.877
  C      110.942    -168.890    -434.479
  O      112.320    -168.653    -434.878
  C      110.961    -169.880    -433.310
  O      110.715    -171.194    -433.817
  C      112.384    -169.785    -432.787
  O      112.788    -170.966    -432.107
  C      113.159    -169.501    -434.069
  N      118.186    -170.245    -433.562
  C      117.183    -171.070    -433.934
  N      115.866    -170.789    -434.051
  C      115.634    -169.492    -433.782
  C      116.551    -168.535    -433.390
  C      117.888    -168.956    -433.270
  N      118.909    -168.133    -432.856
  N      115.924    -167.323    -433.173
  C      114.648    -167.552    -433.431
  N      114.428    -168.847    -433.798
  O      108.947    -165.370    -432.494
  O      108.710    -167.655    -431.346
  H      112.843    -171.693    -432.760
  H      108.166    -165.113    -431.969
  H      117.473    -172.091    -434.163
  H      113.855    -166.818    -433.355
  H      113.381    -170.414    -434.640
  H      112.464    -168.943    -432.090
  H      110.224    -169.644    -432.543
  H      110.431    -169.313    -435.353
  H      110.538    -166.814    -434.905
  H      119.827    -168.534    -432.745
  H      118.697    -167.186    -432.577
  H      109.203    -167.669    -434.089
  P      109.344    -171.901    -433.362
  C      108.595    -173.419    -431.403
  O      109.527    -172.451    -431.865
  O      109.303    -173.229    -434.255
  O      108.137    -171.054    -433.588
  H      108.433    -173.311    -434.689
  H      108.835    -173.694    -430.397
  H      108.640    -174.285    -432.030
  H      107.608    -173.007    -431.434

 6  7  8  9  10  11  12  13  14  15  25  28  32  33  34  35 0
 6-311+G(2d,p)
 ****
 36  39  40 0
 6-311+G(2d,p)
 ****
 1  2  3  4  5  16  17  18  19  20  21  22  23  24 0
 3-21G
 ****
 26  27  29  30  31  37  38  41  42  43  44  45  46  47 0
 3-21G
 ****
 48 0
 3-21G
 ****


