%nproc=1
%NoSave
%Mem=1900MB
#P OB98/GEN NMR

erre ene a

0 1
  C     -386.001     660.521     876.349
  O     -385.723     661.593     875.433
  P     -385.292     661.258     873.931
  C     -385.295     662.458     871.641
  O     -385.753     662.489     872.989
  C     -386.320     663.102     870.724
  O     -387.531     662.315     870.642
  C     -386.794     664.486     871.193
  O     -385.792     665.478     871.005
  C     -388.058     664.660     870.339
  O     -387.728     665.110     869.021
  C     -388.603     663.238     870.302
  N     -389.746     663.043     871.212
  C     -390.857     663.852     870.957
  O     -390.840     664.686     870.051
  N     -391.989     663.648     871.726
  C     -391.950     662.850     872.729
  N     -393.119     662.639     873.432
  C     -390.729     662.098     873.140
  C     -389.683     662.229     872.340
  O     -385.711     659.901     873.431
  O     -383.705     661.395     873.919
  H     -383.307     660.604     873.523
  H     -387.327     666.003     869.122
  H     -390.741     661.484     874.043
  H     -388.752     661.726     872.526
  H     -388.921     662.965     869.300
  H     -388.739     665.417     870.781
  H     -387.073     664.438     872.251
  H     -385.881     663.168     869.706
  H     -393.940     663.144     873.116
  H     -385.151     661.407     871.355
  H     -393.260     661.818     874.014
  H     -384.338     662.967     871.577
  P     -386.085     666.914     871.677
  C     -384.627     668.696     872.901
  O     -384.750     667.354     872.455
  O     -387.112     666.578     872.868
  O     -386.631     667.945     870.768
  H     -387.756     667.293     872.960
  H     -383.875     668.741     873.676
  H     -385.568     669.068     873.299
  H     -384.329     669.329     872.063
  H     -386.272     660.927     877.301
  H     -385.130     659.909     876.457
  H     -386.808     659.929     875.971

 3  4  5  6  7  8  9  10  11  12  13  24  27  28  29  30  32 0
 6-311+G(2d,p)
 ****
 34  35 0
 6-311+G(2d,p)
 ****
 1  2  14  15  16  17  18  19  20  21  22  23  25  26 0
 3-21G
 ****
 31  33  36  37  38  39  40  41  42  43  44  45  46 0
 3-21G
 ****


