%nproc=1
%NoSave
%Mem=1900MB
#P OB98/GEN NMR

erre ene a

0 1
  C      351.154     776.241    -624.012
  O      351.316     777.480    -623.323
  P      350.136     778.285    -622.612
  C      351.206     778.175    -620.218
  O      350.108     777.865    -621.071
  C      351.026     777.644    -618.783
  O      350.927     776.197    -618.814
  C      352.250     777.977    -617.928
  O      352.366     779.249    -617.318
  C      352.379     776.810    -616.963
  O      351.731     777.055    -615.717
  C      351.673     775.661    -617.705
  N      354.404     771.487    -616.560
  C      353.625     772.279    -615.734
  N      353.603     771.946    -614.425
  N      352.941     773.305    -616.150
  C      353.114     773.581    -617.462
  C      353.879     772.888    -618.381
  C      354.586     771.706    -617.921
  O      355.277     770.967    -618.607
  N      353.834     773.470    -619.616
  C      353.075     774.535    -619.452
  N      352.605     774.638    -618.157
  O      348.831     778.300    -623.334
  O      350.694     779.804    -622.585
  H      351.477     776.198    -615.331
  H      349.914     780.383    -622.667
  H      354.886     770.688    -616.187
  H      352.820     775.249    -620.225
  H      350.951     775.160    -617.059
  H      353.430     776.606    -616.736
  H      354.197     771.238    -614.021
  H      353.129     777.901    -618.591
  H      353.209     772.639    -613.791
  H      350.090     777.996    -618.350
  H      351.299     779.267    -620.211
  H      352.129     777.787    -620.645
  P      353.101     780.528    -617.929
  C      351.125     782.086    -617.441
  O      351.977     781.554    -618.434
  O      353.729     780.001    -619.302
  O      354.153     781.130    -617.057
  H      354.418     780.622    -619.624
  H      350.237     782.505    -617.915
  H      351.651     782.881    -616.903
  H      350.814     781.304    -616.726
  H      352.100     775.919    -624.394
  H      350.468     776.371    -624.823
  H      350.772     775.504    -623.336

 3  4  5  6  7  8  9  10  11  12  23  26  30  31 0
 6-311+G(2d,p)
 ****
 33  35  36  37  38 0
 6-311+G(2d,p)
 ****
 1  2  13  14  15  16  17  18  19  20  21  22  24  25 0
 3-21G
 ****
 27  28  29  32  34  39  40  41  42  43  44  45  46  47  48  49 0
 3-21G
 ****


