%nproc=1
%NoSave
%Mem=1900MB
#P OB98/GEN NMR

erre ene a

0 1
  C      351.497     731.492    -227.139
  O      351.837     731.555    -225.772
  H      351.481     730.445    -227.451
  H      352.254     732.022    -227.732
  H      350.513     731.931    -227.324
  P      351.503     732.883    -224.948
  C      353.672     733.347    -223.621
  O      352.333     732.856    -223.583
  C      354.169     733.787    -222.242
  O      353.391     734.910    -221.786
  C      354.007     732.674    -221.187
  O      355.091     731.779    -221.115
  C      353.887     733.478    -219.908
  O      355.172     733.767    -219.332
  C      353.205     734.788    -220.365
  N      349.611     734.470    -216.738
  C      350.970     734.161    -216.660
  N      351.383     733.675    -215.470
  N      351.793     734.304    -217.649
  C      351.202     734.700    -218.801
  C      349.877     735.024    -219.002
  C      348.978     734.936    -217.878
  O      347.780     735.213    -217.894
  N      349.645     735.356    -220.315
  C      350.800     735.146    -220.919
  N      351.799     734.841    -220.021
  O      349.997     732.645    -224.445
  O      351.594     734.167    -225.729
  H      355.675     732.940    -219.290
  H      349.522     733.497    -224.387
  H      349.028     734.367    -215.928
  H      350.975     735.256    -221.985
  H      353.686     735.669    -219.906
  H      353.320     732.937    -219.150
  H      350.769     733.456    -214.693
  H      353.077     732.131    -221.345
  H      352.324     733.256    -215.422
  H      355.206     734.125    -222.322
  H      353.671     734.196    -224.301
  H      354.343     732.587    -224.043
  P      354.865     730.196    -221.162
  C      355.959     729.620    -218.827
  O      355.962     729.493    -220.242
  O      355.308     729.804    -222.646
  O      353.476     729.743    -220.858
  H      354.549     729.716    -223.228
  H      356.780     729.069    -218.418
  H      355.041     729.234    -218.436
  H      356.054     730.652    -218.561

 6  7  8  9  10  11  12  13  14  15  26  29  33  34 0
 6-311+G(2d,p)
 ****
 36  38  39  40  41 0
 6-311+G(2d,p)
 ****
 1  2  3  4  5  16  17  18  19  20  21  22  23  24  25 0
 3-21G
 ****
 27  28  30  31  32  35  37  42  43  44  45  46  47 0
 3-21G
 ****
 48  49 0
 3-21G
 ****


