%nproc=1
%NoSave
%Mem=1900MB
#P OB98/GEN NMR

erre ene a

0 1
  C     -893.581     776.141     301.484
  O     -892.521     775.409     302.071
  H     -893.151     776.893     300.804
  H     -894.161     776.657     302.257
  H     -894.231     775.475     300.910
  P     -892.941     774.300     303.148
  C     -893.401     774.385     305.707
  O     -893.381     775.092     304.476
  C     -893.511     775.345     306.874
  O     -892.391     776.264     306.903
  C     -894.781     776.196     306.886
  O     -895.871     775.492     307.456
  C     -894.331     777.385     307.736
  O     -894.401     777.066     309.139
  C     -892.881     777.578     307.279
  N     -893.191     782.437     305.907
  C     -893.541     781.821     307.089
  N     -894.071     782.609     308.062
  N     -893.381     780.540     307.327
  C     -892.901     779.870     306.261
  C     -892.511     780.345     305.032
  C     -892.631     781.771     304.812
  O     -892.271     782.391     303.813
  N     -892.041     779.354     304.208
  C     -892.171     778.259     304.945
  N     -892.691     778.519     306.192
  O     -891.541     773.635     303.566
  O     -893.901     773.267     302.668
  H     -894.201     776.122     309.266
  H     -891.671     772.674     303.704
  H     -893.301     783.429     305.801
  H     -891.891     777.257     304.619
  H     -892.241     777.936     308.097
  H     -894.991     778.240     307.587
  H     -894.471     783.514     307.837
  H     -895.011     776.550     305.874
  H     -894.401     782.140     308.890
  H     -893.451     774.750     307.805
  H     -892.481     773.806     305.791
  H     -894.241     773.691     305.700
  P     -897.231     775.395     306.603
  C     -899.441     776.714     306.424
  O     -898.141     776.659     306.976
  O     -897.981     774.154     307.313
  O     -897.021     775.136     305.138
  H     -897.941     773.365     306.726
  H     -899.931     777.605     306.755
  H     -900.000     775.859     306.743
  H     -899.375     776.719     305.356

 6  7  8  9  10  11  12  13  14  15  26  29  33  34 0
 6-311+G(2d,p)
 ****
 36  38  39  40  41 0
 6-311+G(2d,p)
 ****
 1  2  3  4  5  16  17  18  19  20  21  22  23  24  25 0
 3-21G
 ****
 27  28  30  31  32  35  37  42  43  44  45  46  47 0
 3-21G
 ****
 48  49 0
 3-21G
 ****


