%nproc=1
%NoSave
%Mem=1900MB
#P OB98/GEN NMR

erre ene a

0 1
  C      838.269      37.519    -612.106
  O      837.070      38.225    -612.447
  P      835.792      38.316    -611.477
  C      835.754      40.807    -610.789
  O      836.067      39.481    -610.397
  C      835.462      41.680    -609.565
  O      834.312      41.176    -608.844
  C      836.564      41.719    -608.515
  O      837.680      42.501    -608.927
  C      835.811      42.285    -607.307
  O      835.760      43.717    -607.355
  C      834.399      41.702    -607.498
  N      834.069      40.684    -606.518
  C      834.000      41.093    -605.183
  O      834.290      42.251    -604.874
  N      833.616      40.180    -604.231
  C      833.427      38.941    -604.563
  N      833.039      38.081    -603.585
  C      833.631      38.436    -605.941
  C      833.941      39.349    -606.855
  O      835.406      37.010    -610.864
  O      834.609      38.899    -612.390
  H      833.751      38.607    -612.030
  H      835.357      44.011    -606.509
  H      833.496      37.384    -606.168
  H      834.084      39.068    -607.893
  H      833.653      42.502    -607.456
  H      836.282      42.007    -606.360
  H      836.890      40.693    -608.290
  H      835.234      42.698    -609.911
  H      832.901      38.466    -602.651
  H      834.859      40.788    -611.429
  H      832.846      37.111    -603.747
  H      836.588      41.225    -611.366
  P      839.122      42.031    -608.409
  C      840.032      42.027    -610.844
  O      839.866      41.309    -609.635
  O      838.789      40.827    -607.399
  O      839.909      43.107    -607.733
  H      839.394      40.873    -606.636
  H      840.929      41.651    -611.353
  H      840.161      43.099    -610.661
  H      839.159      41.860    -611.475
  H      838.972      37.602    -612.908
  H      838.040      36.487    -611.938
  H      838.690      37.940    -611.217

 3  4  5  6  7  8  9  10  11  12  13  24  27  28  29  30  32 0
 6-311+G(2d,p)
 ****
 34  35 0
 6-311+G(2d,p)
 ****
 1  2  14  15  16  17  18  19  20  21  22  23  25  26 0
 3-21G
 ****
 31  33  36  37  38  39  40  41  42  43  44  45  46 0
 3-21G
 ****


