%nproc=1
%NoSave
%Mem=1900MB
#P OB98/GEN NMR

erre ene a

0 1
  C      528.387     667.414     184.740
  O      527.899     668.432     185.610
  P      527.185     667.975     186.975
  C      526.351     670.422     187.505
  O      526.034     669.069     187.250
  C      525.217     671.338     187.038
  O      525.033     671.194     185.610
  C      523.859     671.015     187.658
  O      523.761     671.498     188.989
  C      522.902     671.690     186.670
  O      522.844     673.110     186.916
  C      523.631     671.422     185.321
  N      523.049     670.319     184.556
  C      521.727     670.473     184.165
  O      521.058     671.478     184.420
  N      521.201     669.423     183.474
  C      521.807     668.236     183.197
  O      521.264     667.303     182.611
  C      523.197     668.119     183.664
  C      523.741     669.154     184.313
  O      528.330     668.317     188.035
  O      526.739     666.549     186.958
  H      528.908     669.036     187.723
  H      523.723     673.473     186.676
  H      520.239     669.520     183.149
  H      523.717     667.187     183.479
  H      524.762     669.087     184.684
  H      523.597     672.335     184.696
  H      521.894     671.300     186.715
  H      523.687     669.930     187.651
  H      525.506     672.371     187.253
  H      527.275     670.678     186.960
  H      526.538     670.552     188.571
  P      522.299     671.442     189.669
  C      522.789     673.511     191.203
  O      521.996     672.933     190.182
  O      522.597     670.605     191.009
  O      521.251     670.844     188.776
  H      523.427     670.888     191.427
  H      522.672     674.601     191.176
  H      523.848     673.257     191.073
  H      522.447     673.153     192.176
  H      528.834     667.865     183.879
  H      527.576     666.787     184.434
  H      529.118     666.826     185.254

 3  4  5  6  7  8  9  10  11  12  13  24  28  29  30  31  32 0
 6-311+G(2d,p)
 ****
 33  34 0
 6-311+G(2d,p)
 ****
 1  2  14  15  16  17  18  19  20  21  22  23  25  26  27 0
 3-21G
 ****
 35  36  37  38  39  40  41  42  43  44  45 0
 3-21G
 ****


