%nproc=1
%NoSave
%Mem=1900MB
#P OB98/GEN NMR

erre ene a

0 1
  C     -548.659      91.561    -498.407
  O     -547.798      90.417    -498.328
  P     -547.113      90.146    -496.895
  C     -544.805      91.351    -497.088
  O     -546.138      91.389    -496.566
  C     -544.370      92.712    -497.628
  O     -544.612      93.734    -496.631
  C     -542.880      92.799    -498.010
  O     -542.746      93.625    -499.181
  C     -542.276      93.565    -496.842
  O     -541.046      94.205    -497.205
  C     -543.422      94.515    -496.511
  N     -544.789      98.410    -493.569
  C     -545.178      98.095    -494.864
  N     -546.042      98.953    -495.456
  N     -544.763      97.031    -495.505
  C     -543.927      96.254    -494.774
  C     -543.473      96.455    -493.493
  C     -543.901      97.661    -492.804
  O     -543.542      98.021    -491.681
  N     -542.621      95.436    -493.096
  C     -542.568      94.638    -494.131
  N     -543.334      95.088    -495.173
  O     -546.110      88.935    -497.196
  O     -548.084      89.798    -495.817
  H     -541.264      94.913    -497.834
  H     -546.307      88.186    -496.601
  H     -545.123      99.250    -493.130
  H     -541.982      93.731    -494.197
  H     -543.474      95.334    -497.237
  H     -542.065      92.871    -496.022
  H     -546.454      99.750    -495.000
  H     -542.388      91.838    -498.177
  H     -546.385      98.707    -496.382
  H     -544.997      92.953    -498.498
  H     -544.755      90.597    -497.898
  H     -544.130      91.019    -496.294
  P     -542.490      92.859    -500.574
  C     -540.005      93.495    -501.062
  O     -540.928      92.526    -500.595
  O     -542.645      94.025    -501.669
  O     -543.424      91.722    -500.820
  H     -542.934      93.649    -502.513
  H     -540.490      94.472    -501.188
  H     -539.620      93.176    -502.030
  H     -539.197      93.591    -500.351
  H     -549.055      91.642    -499.398
  H     -548.102      92.444    -498.173
  H     -549.463      91.451    -497.710

 3  4  5  6  7  8  9  10  11  12  23  26  30  31  33  0
 6-311+G(2d,p)
 ****
 35  36  37  38 0
 6-311+G(2d,p)
 ****
 1  2  13  14  15  16  17  18  19  20  21  22  24  25  27  28  29 0
 3-21G
 ****
 32  34  39  40  41  42  43  44  45  46  47  48  49 0
 3-21G
 ****


