%nproc=1
%NoSave
%Mem=1900MB
#P OB98/GEN NMR

erre ene a

0 1
  C      697.931    -503.842      -2.845
  O      697.845    -503.001      -3.994
  P      699.065    -501.953      -4.179
  C      700.047    -502.823      -6.434
  O      700.221    -502.674      -5.024
  C      699.606    -504.267      -6.764
  O      698.367    -504.635      -6.142
  C      699.417    -504.498      -8.289
  O      700.668    -504.682      -8.913
  C      698.530    -505.764      -8.242
  O      699.342    -506.941      -8.132
  C      697.696    -505.565      -7.016
  N      693.096    -506.782      -8.789
  C      694.257    -507.508      -8.815
  N      694.188    -508.740      -9.384
  N      695.389    -507.067      -8.341
  C      695.299    -505.832      -7.817
  C      694.182    -505.032      -7.698
  C      692.926    -505.543      -8.202
  O      691.864    -504.952      -8.201
  N      694.473    -503.867      -7.016
  C      695.802    -503.877      -6.857
  N      696.338    -505.089      -7.254
  O      699.656    -501.797      -2.708
  O      698.615    -500.630      -4.738
  H      699.762    -506.978      -7.262
  H      699.458    -500.905      -2.358
  H      692.241    -507.183      -9.168
  H      696.358    -503.080      -6.463
  H      697.589    -506.517      -6.446
  H      697.987    -505.847      -9.188
  H      693.387    -509.148      -9.771
  H      698.852    -503.667      -8.714
  H      695.077    -509.302      -9.418
  H      700.383    -504.938      -6.380
  H      700.973    -502.588      -6.960
  H      699.271    -502.099      -6.764
  P      701.196    -503.534      -9.898
  C      703.673    -503.511      -9.055
  O      702.478    -502.814      -9.181
  O      700.027    -502.440      -9.839
  O      701.426    -503.997     -11.302
  H      699.806    -502.147     -10.724
  H      704.476    -502.811      -9.079
  H      703.816    -504.231      -9.911
  H      703.650    -504.048      -8.118
  H      697.082    -504.493      -2.815
  H      697.949    -503.238      -1.962
  H      698.827    -504.425      -2.896

 3  4  5  6  7  8  9  10  11  12  23  26  30  31 0
 6-311+G(2d,p)
 ****
 33  35  36  37  38 0
 6-311+G(2d,p)
 ****
 1  2  13  14  15  16  17  18  19  20  21  22  24  25 0
 3-21G
 ****
 27  28  29  32  34  39  40  41  42  43  44  45  46  47  48  49 0
 3-21G
 ****


