%nproc=1
%NoSave
%Mem=1900MB
#P OB98/GEN NMR

erre ene a

0 1
  C      791.602     132.714     366.990
  O      790.465     132.464     367.795
  H      792.366     133.205     367.605
  H      791.338     133.379     366.164
  H      792.013     131.776     366.601
  P      789.294     131.594     367.136
  C      787.488     133.489     367.315
  O      788.249     132.621     366.486
  C      787.402     134.877     366.688
  O      788.713     135.426     366.452
  C      786.759     134.883     365.309
  O      785.365     134.661     365.354
  C      787.137     136.288     364.839
  O      786.279     137.283     365.422
  C      788.581     136.416     365.393
  N      789.591     136.243     364.357
  C      790.751     137.008     364.507
  O      790.880     137.762     365.474
  N      791.729     136.917     363.546
  C      791.572     136.118     362.536
  N      792.569     136.080     361.611
  C      790.370     135.270     362.351
  C      789.430     135.391     363.286
  O      788.506     131.048     368.416
  O      789.747     130.530     366.188
  H      785.366     137.005     365.229
  H      788.230     131.749     369.033
  H      790.283     134.617     361.502
  H      788.519     134.808     363.228
  H      788.724     137.402     365.859
  H      787.049     136.395     363.755
  H      787.255     134.170     364.644
  H      786.872     135.542     367.381
  H      793.364     136.693     361.756
  H      787.917     133.549     368.316
  H      792.538     135.529     360.772
  H      786.489     133.060     367.414
  P      784.736     133.329     364.708
  C      783.239     134.872     363.286
  O      784.139     133.761     363.282
  O      783.780     132.594     365.591
  O      786.027     132.479     364.292
  H      786.616     132.921     363.655
  H      782.908     135.067     362.287
  H      783.740     135.736     363.671
  H      782.395     134.645     363.903

 6  7  8  9  10  11  12  13  14  15  16  26  30  31  32  33  35 0
 6-311+G(2d,p)
 ****
 37  38 0
 6-311+G(2d,p)
 ****
 1  2  3  4  5  17  18  19  20  21  22  23  24  25 0
 3-21G
 ****
 27  28  29  34  36  39  40  41  42  43  44  45  46 0
 3-21G
 ****


