%nproc=1
%NoSave
%Mem=1900MB
#P OB98/GEN NMR

erre ene a

0 1
  C      345.892     416.892     435.209
  O      346.895     415.920     435.539
  P      346.943     415.190     436.964
  C      349.466     414.694     436.743
  O      348.165     414.154     436.971
  C      350.522     413.598     436.571
  O      350.756     412.915     437.815
  C      350.138     412.504     435.567
  O      350.352     412.957     434.246
  C      351.052     411.366     436.011
  O      352.380     411.546     435.490
  C      351.058     411.541     437.542
  N      350.405     406.975     439.772
  C      351.489     407.568     439.222
  N      351.584     408.781     438.645
  C      350.401     409.412     438.690
  C      349.201     408.941     439.206
  C      349.232     407.657     439.781
  N      348.120     407.054     440.322
  N      348.195     409.873     439.047
  C      348.775     410.898     438.460
  N      350.107     410.669     438.211
  O      345.642     414.606     437.402
  O      347.428     416.330     437.992
  H      352.328     411.496     434.521
  H      347.081     416.143     438.881
  H      352.405     406.985     439.259
  H      348.272     411.815     438.181
  H      352.050     411.338     437.967
  H      350.699     410.386     435.682
  H      349.101     412.209     435.716
  H      351.463     414.075     436.272
  H      349.731     415.330     437.593
  H      348.216     406.110     440.669
  H      347.229     407.529     440.278
  H      349.427     415.319     435.844
  P      349.206     413.784     433.494
  C      350.134     413.054     431.208
  O      349.770     414.162     432.036
  O      348.635     414.929     434.253
  O      348.094     412.685     433.165
  H      347.206     413.114     433.155
  H      351.125     412.694     431.500
  H      350.172     413.405     430.176
  H      349.402     412.246     431.289
  H      346.052     417.246     434.212
  H      345.952     417.713     435.893
  H      344.924     416.442     435.276

 3  4  5  6  7  8  9  10  11  12  22  25  29  30  31  32 0
 6-311+G(2d,p)
 ****
 33  36  37 0
 6-311+G(2d,p)
 ****
 1  2  13  14  15  16  17  18  19  20  21  23  24  26 0
 3-21G
 ****
 27  28  34  35  38  39  40  41  42  43  44  45  46  47  48 0
 3-21G
 ****


