%nproc=1
%NoSave
%Mem=1900MB
#P OB98/GEN NMR

erre ene a

0 1
  C     -303.349    -817.886    -271.042
  O     -302.329    -818.822    -271.396
  P     -302.327    -819.593    -272.798
  C     -303.774    -821.603    -272.094
  O     -303.682    -820.452    -272.925
  C     -305.230    -821.999    -271.838
  O     -305.981    -822.026    -273.074
  C     -305.413    -823.375    -271.195
  O     -305.151    -823.316    -269.803
  C     -306.856    -823.682    -271.574
  O     -307.765    -823.027    -270.669
  C     -306.964    -823.071    -272.974
  N     -309.341    -826.211    -276.244
  C     -309.808    -825.339    -275.333
  N     -309.112    -824.537    -274.489
  C     -307.794    -824.691    -274.682
  C     -307.162    -825.549    -275.580
  C     -308.002    -826.341    -276.386
  N     -307.522    -827.249    -277.300
  N     -305.792    -825.447    -275.471
  C     -305.591    -824.530    -274.544
  N     -306.776    -824.044    -274.040
  O     -301.078    -820.375    -273.073
  O     -302.514    -818.435    -273.900
  H     -308.671    -823.208    -270.976
  H     -302.103    -818.710    -274.742
  H     -310.892    -825.259    -275.257
  H     -304.624    -824.189    -274.210
  H     -307.941    -822.599    -273.140
  H     -307.077    -824.754    -271.537
  H     -304.751    -824.095    -271.679
  H     -305.686    -821.218    -271.204
  H     -303.279    -821.375    -271.138
  H     -308.185    -827.792    -277.826
  H     -306.518    -827.384    -277.383
  H     -303.243    -822.426    -272.573
  P     -303.807    -823.951    -269.211
  C     -304.948    -826.244    -269.202
  O     -303.804    -825.504    -269.591
  O     -303.527    -823.645    -267.777
  O     -302.665    -823.354    -270.161
  H     -301.826    -823.278    -269.664
  H     -304.871    -826.501    -268.141
  H     -304.996    -827.163    -269.797
  H     -305.872    -825.668    -269.380
  H     -303.151    -817.495    -270.066
  H     -304.300    -818.377    -271.043
  H     -303.360    -817.085    -271.752

 3  4  5  6  7  8  9  10  11  12  22  25  29  30  31  32 0
 6-311+G(2d,p)
 ****
 33  36  37 0
 6-311+G(2d,p)
 ****
 1  2  13  14  15  16  17  18  19  20  21  23  24  26 0
 3-21G
 ****
 27  28  34  35  38  39  40  41  42  43  44  45  46  47  48 0
 3-21G
 ****


