%nproc=1
%NoSave
%Mem=1900MB
#P OB98/GEN NMR

erre ene a

0 1
  C      -39.125      -9.827      40.180
  O      -40.539      -9.853      40.145
  H      -38.806      -9.033      40.861
  H      -38.729      -9.619      39.182
  H      -38.737     -10.782      40.544
  P      -41.207     -10.970      39.207
  C      -42.505     -12.035      41.202
  O      -41.548     -12.208      40.168
  C      -42.449     -13.212      42.183
  O      -41.096     -13.310      42.719
  C      -43.391     -13.062      43.388
  O      -43.764     -14.380      43.824
  C      -42.476     -12.425      44.420
  O      -43.040     -12.493      45.709
  C      -41.204     -13.227      44.157
  N      -36.096     -13.411      44.240
  C      -37.008     -14.092      43.512
  N      -38.351     -13.979      43.536
  C      -38.734     -13.033      44.411
  C      -37.921     -12.252      45.216
  C      -36.536     -12.473      45.111
  N      -35.604     -11.789      45.856
  N      -38.679     -11.391      45.988
  C      -39.927     -11.649      45.652
  N      -40.008     -12.638      44.711
  O      -39.979     -11.494      38.327
  O      -42.342     -10.501      38.360
  H      -43.152     -13.426      45.991
  H      -39.958     -11.025      37.473
  H      -36.605     -14.826      42.820
  H      -40.803     -11.161      46.063
  H      -41.280     -14.250      44.543
  H      -42.320     -11.364      44.200
  H      -44.292     -12.484      43.166
  H      -42.641     -14.142      41.638
  H      -43.500     -11.978      40.748
  H      -42.299     -11.104      41.738
  H      -34.631     -12.017      45.733
  H      -35.920     -11.098      46.523
  P      -45.261     -14.901      43.550
  C      -44.657     -16.746      41.797
  O      -45.325     -15.525      42.073
  O      -46.062     -13.525      43.363
  O      -45.869     -15.724      44.637
  H      -46.995     -13.651      43.625
  H      -44.806     -17.010      40.771
  H      -45.051     -17.518      42.425
  H      -43.610     -16.631      41.987

 6  7  8  9  10  11  12  13  14  15  25  28  32  33  34  35 0
 6-311+G(2d,p)
 ****
 36  37  40 0
 6-311+G(2d,p)
 ****
 1  2  3  4  5  16  17  18  19  20  21  22  23  24 0
 3-21G
 ****
 26  27  29  30  31  38  39 41  42  43  44  45  46  47  48 0
 3-21G
 ****


