%nproc=1
%NoSave
%Mem=1900MB
#P OB98/GEN NMR

erre ene a

0 1
  C        0.449     -28.309      50.023
  O        1.484     -28.057      49.093
  P        2.561     -29.197      48.770
  C        4.141     -28.408      50.638
  O        3.379     -29.493      50.118
  C        4.709     -28.767      52.008
  O        3.643     -29.090      52.928
  C        5.624     -29.985      51.999
  O        6.896     -29.658      51.479
  C        5.618     -30.371      53.476
  O        6.548     -29.560      54.213
  C        4.173     -30.038      53.882
  N        2.580     -33.874      56.845
  C        3.554     -32.952      57.009
  N        3.947     -31.982      56.153
  C        3.230     -32.041      55.018
  C        2.232     -32.945      54.691
  C        1.887     -33.888      55.677
  N        0.858     -34.792      55.545
  N        1.756     -32.702      53.417
  C        2.464     -31.677      52.981
  N        3.317     -31.205      53.938
  O        3.401     -28.957      47.560
  O        1.675     -30.519      48.591
  H        6.475     -29.819      55.152
  H        1.800     -30.871      47.688
  H        4.083     -32.992      57.958
  H        2.381     -31.233      51.998
  H        4.129     -29.553      54.865
  H        5.896     -31.415      53.639
  H        5.164     -30.794      51.415
  H        5.239     -27.888      52.402
  H        3.484     -27.535      50.726
  H        0.606     -35.321      56.367
  H        0.155     -34.619      54.833
  H        4.953     -28.167      49.944
  P        7.749     -30.765      50.693
  C        9.051     -31.497      52.778
  O        8.148     -31.890      51.761
  O        8.872     -30.246      49.860
  O        6.650     -31.509      49.791
  H        7.065     -31.812      48.962
  H       10.068     -31.472      52.376
  H        9.006     -32.228      53.590
  H        8.788     -30.511      53.174
  H       -0.170     -27.441      50.111
  H        0.875     -28.541      50.977
  H       -0.141     -29.135      49.685

 3  4  5  6  7  8  9  10  11  12  22  25  29  30  31  32 0
 6-311+G(2d,p)
 ****
 33  36  37 0
 6-311+G(2d,p)
 ****
 1  2  13  14  15  16  17  18  19  20  21  23  24  26 0
 3-21G
 ****
 27  28  34  35  38  39  40  41  42  43  44  45  46  47  48 0
 3-21G
 ****


