%nproc=1
%NoSave
%Mem=1900MB
#P OB98/GEN NMR

erre ene a

0 1
  C     -331.000     117.210    -468.239
  O     -331.817     116.070    -468.450
  P     -332.761     115.501    -467.282
  C     -334.768     116.993    -467.950
  O     -333.789     116.695    -466.967
  C     -336.042     117.497    -467.276
  O     -336.625     116.440    -466.493
  C     -335.831     118.661    -466.317
  O     -335.642     119.876    -467.021
  C     -337.101     118.576    -465.478
  O     -338.204     119.172    -466.183
  C     -337.312     117.051    -465.372
  N     -336.847     116.501    -464.105
  C     -337.461     115.323    -463.674
  O     -338.340     114.784    -464.344
  N     -337.039     114.750    -462.500
  C     -336.103     115.322    -461.803
  N     -335.676     114.676    -460.680
  C     -335.467     116.593    -462.192
  C     -335.879     117.118    -463.345
  O     -332.040     114.969    -466.093
  O     -333.695     114.431    -468.009
  H     -338.243     118.743    -467.061
  H     -333.308     113.520    -468.031
  H     -334.701     117.035    -461.570
  H     -335.450     118.042    -463.711
  H     -338.376     116.807    -465.496
  H     -337.018     119.074    -464.506
  H     -334.958     118.476    -465.679
  H     -336.759     117.775    -468.065
  H     -336.015     113.729    -460.551
  H     -334.992     116.076    -468.505
  H     -334.785     114.892    -460.256
  H     -334.369     117.737    -468.645
  P     -335.092     121.136    -466.193
  C     -333.001     119.729    -465.578
  O     -334.067     120.534    -465.109
  O     -336.362     121.592    -465.332
  O     -334.552     122.245    -467.035
  H     -336.786     122.369    -465.739
  H     -332.280     119.601    -464.768
  H     -332.499     120.202    -466.428
  H     -333.379     118.745    -465.870
  H     -330.452     117.426    -469.132
  H     -330.316     117.016    -467.439
  H     -331.615     118.048    -467.986

 3  4  5  6  7  8  9  10  11  12  13  23  27  28  29  30  32 0
 6-311+G(2d,p)
 ****
 34  35 0
 6-311+G(2d,p)
 ****
 1  2  14  15  16  17  18  19  20  21  22  24  25  26 0
 3-21G
 ****
 31  33  36  37  38  39  40  41  42  43  44  45  46 0
 3-21G
 ****


