%nproc=1
%NoSave
%Mem=1900MB
#P OB98/GEN NMR

erre ene a

0 1
  C     -178.151     147.025     -13.181
  O     -178.128     145.603     -13.071
  P     -176.862     144.689     -13.396
  C     -177.323     144.613     -15.976
  O     -177.151     143.903     -14.759
  C     -177.239     143.711     -17.219
  O     -175.893     143.179     -17.339
  C     -178.170     142.507     -17.074
  O     -179.542     142.627     -17.399
  C     -177.456     141.378     -17.803
  O     -177.882     141.245     -19.160
  C     -175.985     141.798     -17.744
  N     -172.587     137.999     -17.294
  C     -173.190     138.500     -18.430
  N     -172.892     137.883     -19.592
  N     -174.024     139.505     -18.424
  C     -174.302     139.974     -17.187
  C     -173.784     139.547     -15.986
  C     -172.816     138.471     -16.008
  O     -172.244     137.998     -15.032
  N     -174.318     140.246     -14.932
  C     -175.173     141.075     -15.492
  N     -175.195     140.953     -16.864
  O     -176.335     143.889     -12.254
  O     -175.727     145.759     -13.808
  H     -177.478     140.438     -19.523
  H     -174.871     145.384     -13.516
  H     -171.932     137.239     -17.359
  H     -175.794     141.784     -14.957
  H     -175.516     141.734     -18.734
  H     -177.662     140.416     -17.318
  H     -172.353     137.032     -19.649
  H     -178.160     142.222     -16.014
  H     -173.492     138.102     -20.390
  H     -177.414     144.288     -18.131
  H     -176.545     145.382     -16.007
  H     -178.279     145.140     -15.969
  P     -180.764     142.623     -16.365
  C     -181.811     140.649     -17.620
  O     -182.020     141.945     -17.088
  O     -181.198     144.159     -16.274
  O     -180.444     142.079     -15.010
  H     -181.756     144.309     -15.489
  H     -182.605     140.426     -18.337
  H     -181.841     139.913     -16.813
  H     -180.843     140.591     -18.132
  H     -179.119     147.388     -12.905
  H     -177.938     147.308     -14.191
  H     -177.413     147.445     -12.530

 3  4  5  6  7  8  9  10  11  12  23  26  30  31 0
 6-311+G(2d,p)
 ****
 33  35  36  37  38 0
 6-311+G(2d,p)
 ****
 1  2  13  14  15  16  17  18  19  20  21  22  24  25 0
 3-21G
 ****
 27  28  29  32  34  39  40  41  42  43  44  45  46  47  48  49 0
 3-21G
 ****


