%nproc=1
%NoSave
%Mem=1900MB
#P OB98/GEN NMR

erre ene a

0 1
  C      266.078      62.968      94.907
  O      267.318      63.365      94.368
  H      266.253      62.501      95.879
  H      265.608      62.236      94.245
  H      265.409      63.822      95.043
  P      267.336      64.457      93.200
  C      266.879      66.263      94.987
  O      266.526      65.747      93.710
  C      267.163      67.764      94.931
  O      268.368      68.002      94.172
  C      266.044      68.549      94.241
  O      264.988      68.943      95.099
  C      266.797      69.763      93.703
  O      266.850      70.818      94.677
  C      268.201      69.216      93.426
  N      268.777      71.209      88.754
  C      268.347      71.828      89.913
  N      267.994      73.126      89.795
  N      268.260      71.216      91.065
  C      268.551      69.897      91.004
  C      268.967      69.171      89.911
  C      269.133      69.872      88.656
  O      269.526      69.375      87.606
  N      269.130      67.842      90.220
  C      268.727      67.754      91.472
  N      268.444      68.986      92.013
  O      266.346      63.841      92.098
  O      268.680      64.740      92.601
  H      267.313      71.578      94.274
  H      266.635      64.115      91.210
  H      268.852      71.739      87.904
  H      268.666      66.836      92.046
  H      268.976      69.911      93.772
  H      266.295      70.173      92.823
  H      267.961      73.620      88.919
  H      265.648      67.989      93.389
  H      267.497      73.562      90.573
  H      267.345      68.135      95.947
  H      267.773      65.725      95.303
  H      266.091      66.050      95.714
  P      263.512      69.176      94.530
  C      263.732      66.822      93.389
  O      263.267      68.153      93.332
  O      263.628      70.590      93.792
  O      262.422      69.164      95.551
  H      263.287      71.304      94.361
  H      263.463      66.311      92.488
  H      263.289      66.325      94.227
  H      264.797      66.820      93.495

 6  7  8  9  10  11  12  13  14  15  26  29  33  34 0
 6-311+G(2d,p)
 ****
 36  38  39  40  41 0
 6-311+G(2d,p)
 ****
 1  2  3  4  5  16  17  18  19  20  21  22  23  24  25 0
 3-21G
 ****
 27  28  30  31  32  35  37  42  43  44  45  46  47 0
 3-21G
 ****
 48  49 0
 3-21G
 ****


