%nproc=1
%NoSave
%Mem=1900MB
#P OB98/GEN NMR

erre ene a

0 1
  C      269.743     364.545    -337.792
  O      270.268     365.720    -338.380
  H      268.737     364.375    -338.197
  H      269.666     364.652    -336.706
  H      270.367     363.684    -338.040
  P      271.622     366.331    -337.767
  C      272.914     365.797    -339.944
  O      272.818     365.579    -338.533
  C      274.000     366.818    -340.273
  O      275.307     366.248    -340.033
  C      274.015     367.251    -341.730
  O      272.904     368.038    -342.110
  C      275.421     367.808    -341.893
  O      275.541     369.169    -341.515
  C      276.232     366.923    -340.910
  N      277.098     365.979    -341.609
  C      278.453     366.301    -341.634
  O      278.914     367.325    -341.126
  N      279.270     365.429    -342.299
  C      278.855     364.313    -342.978
  O      279.633     363.593    -343.598
  C      277.408     364.038    -342.938
  C      276.608     364.875    -342.271
  O      271.737     366.279    -336.271
  O      271.678     367.811    -338.364
  H      275.122     369.706    -342.222
  H      272.314     368.372    -337.858
  H      280.248     365.641    -342.317
  H      277.049     363.161    -343.475
  H      275.537     364.685    -342.231
  H      276.865     367.546    -340.265
  H      275.768     367.734    -342.925
  H      273.971     366.346    -342.348
  H      273.874     367.678    -339.601
  H      271.939     366.177    -340.283
  H      273.109     364.841    -340.448
  P      272.875     368.944    -343.429
  C      270.664     368.043    -344.432
  O      272.065     368.144    -344.563
  O      274.148     369.638    -343.795
  O      271.816     370.083    -343.001
  H      272.090     370.921    -343.423
  H      270.268     367.487    -345.256
  H      270.235     369.023    -344.424
  H      270.427     367.542    -343.517

 6  7  8  9  10  11  12  13  14  15  16  26  31  32  33  34  35 0
 6-311+G(2d,p)
 ****
 36  37 0
 6-311+G(2d,p)
 ****
 1  2  3  4  5  17  18  19  20  21  22  23  24  25 0
 3-21G
 ****
 27  28  29  30  38  39  40  41  42  43  44  45 0
 3-21G
 ****


