%nproc=1
%NoSave
%Mem=1900MB
#P OB98/GEN NMR

erre ene a

0 1
  C     -383.588     435.800     275.902
  O     -383.389     435.800     274.502
  H     -382.614     435.825     276.393
  H     -384.119     434.894     276.213
  H     -384.154     436.690     276.200
  P     -384.705     435.711     273.588
  C     -385.809     433.803     272.245
  O     -384.647     434.235     272.944
  C     -385.583     432.402     271.655
  O     -384.777     432.530     270.465
  C     -384.857     431.446     272.613
  O     -385.381     430.124     272.436
  C     -383.420     431.493     272.119
  O     -382.683     430.333     272.491
  C     -383.632     431.657     270.617
  N     -378.957     430.585     268.876
  C     -379.968     429.795     269.310
  N     -381.199     430.169     269.731
  C     -381.352     431.507     269.624
  C     -380.417     432.437     269.207
  C     -379.160     431.933     268.824
  N     -378.119     432.723     268.419
  N     -380.946     433.714     269.280
  C     -382.171     433.553     269.736
  N     -382.458     432.235     269.977
  O     -384.887     436.821     272.608
  O     -385.863     435.565     274.685
  H     -383.007     429.571     271.958
  H     -385.627     434.905     275.364
  H     -379.761     428.729     269.326
  H     -382.892     434.355     269.914
  H     -383.851     430.714     270.108
  H     -382.904     432.364     272.536
  H     -384.938     431.745     273.661
  H     -386.552     431.999     271.348
  H     -386.042     434.506     271.432
  H     -377.247     432.275     268.160
  H     -378.245     433.724     268.364
  H     -386.650     433.794     272.948
  P     -385.825     429.293     273.726
  C     -384.832     428.591     276.010
  O     -384.613     429.292     274.792
  O     -386.425     427.947     273.457
  O     -386.904     430.257     274.428
  H     -387.652     429.725     274.750
  H     -383.960     428.665     276.626
  H     -385.032     427.562     275.798
  H     -385.668     429.019     276.522

 6  7  8  9  10  11  12  13  14  15  25  28  32  33  34  35 0
 6-311+G(2d,p)
 ****
 36  39  40 0
 6-311+G(2d,p)
 ****
 1  2  3  4  5  16  17  18  19  20  21  22  23  24 0
 3-21G
 ****
 26  27  29  30  31  37  38  41  42  43  44  45  46  47 0
 3-21G
 ****
 48 0
 3-21G
 ****


