%nproc=1
%NoSave
%Mem=1900MB
#P OB98/GEN NMR

erre ene a

0 1
  C       32.583     -81.548      37.099
  O       33.832     -82.201      36.984
  H       32.439     -80.872      36.254
  H       31.792     -82.302      37.086
  H       32.524     -80.991      38.038
  P       35.141     -81.289      37.157
  C       35.588     -81.833      39.659
  O       36.011     -81.990      38.313
  C       36.436     -82.703      40.589
  O       35.771     -83.982      40.768
  C       37.843     -82.983      40.051
  O       38.768     -82.960      41.140
  C       37.735     -84.391      39.492
  O       38.992     -85.055      39.458
  C       36.720     -85.017      40.444
  N       37.271     -89.884      39.003
  C       38.088     -89.041      39.670
  N       37.863     -87.757      40.021
  C       36.625     -87.378      39.654
  C       35.681     -88.124      38.969
  C       36.048     -89.437      38.628
  N       35.236     -90.290      37.917
  N       34.543     -87.372      38.742
  C       34.799     -86.197      39.283
  N       36.045     -86.152      39.842
  O       34.553     -79.980      37.872
  O       35.874     -80.961      35.902
  H       39.639     -84.466      39.018
  H       34.132     -79.407      37.203
  H       39.055     -89.449      39.954
  H       34.126     -85.351      39.288
  H       37.180     -85.370      41.377
  H       37.339     -84.354      38.471
  H       38.157     -82.263      39.293
  H       36.475     -82.227      41.576
  H       34.537     -82.129      39.740
  H       35.602     -91.195      37.668
  H       34.346     -89.953      37.576
  H       35.686     -80.781      39.948
  P       39.848     -81.773      41.147
  C       38.907     -79.858      42.619
  O       39.749     -80.999      42.551
  O       39.255     -80.726      40.092
  O       41.223     -82.214      40.762
  H       39.946     -80.466      39.455
  H       38.940     -79.449      43.607
  H       37.902     -80.142      42.384
  H       39.244     -79.124      41.917

 6  7  8  9  10  11  12  13  14  15  25  28  32  33  34  35 0
 6-311+G(2d,p)
 ****
 36  39  40 0
 6-311+G(2d,p)
 ****
 1  2  3  4  5  16  17  18  19  20  21  22  23  24 0
 3-21G
 ****
 26  27  29  30  31  37  38  41  42  43  44  45  46  47 0
 3-21G
 ****
 48 0
 3-21G
 ****


