%nproc=1
%NoSave
%Mem=1900MB
#P OB98/GEN NMR

erre ene a

0 1
  C     -226.379    -454.981     175.845
  O     -227.221    -454.243     176.707
  H     -226.884    -455.104     174.883
  H     -226.189    -455.970     176.267
  H     -225.432    -454.461     175.677
  P     -226.621    -453.688     178.085
  C     -227.894    -451.468     178.409
  O     -227.788    -452.834     178.782
  C     -228.803    -451.308     177.188
  O     -230.116    -451.861     177.511
  C     -229.017    -449.845     176.750
  O     -229.188    -449.844     175.328
  C     -230.320    -449.518     177.457
  O     -230.900    -448.338     176.967
  C     -231.080    -450.826     177.225
  N     -232.271    -450.965     178.052
  C     -233.335    -450.111     177.787
  O     -233.337    -449.273     176.887
  N     -234.424    -450.243     178.610
  C     -234.540    -451.121     179.648
  O     -235.546    -451.212     180.340
  C     -233.369    -451.975     179.899
  C     -232.305    -451.860     179.100
  O     -225.304    -452.997     177.988
  O     -226.534    -454.993     179.010
  H     -225.625    -455.347     178.992
  H     -231.649    -448.061     177.535
  H     -235.205    -449.632     178.430
  H     -233.423    -452.667     180.728
  H     -231.423    -452.473     179.255
  H     -231.359    -450.931     176.170
  H     -230.142    -449.359     178.525
  H     -228.183    -449.192     177.021
  H     -228.401    -451.912     176.364
  H     -226.890    -451.099     178.175
  H     -228.296    -450.894     179.251
  P     -228.049    -449.365     174.303
  C     -228.645    -450.993     172.395
  O     -228.538    -449.634     172.799
  O     -226.698    -449.936     174.600
  O     -228.017    -447.767     174.416
  H     -227.097    -447.457     174.317
  H     -228.978    -451.038     171.379
  H     -229.349    -451.498     173.024
  H     -227.689    -451.466     172.478

 6  7  8  9  10  11  12  13  14  15  16  27  31  32  33  34  35 0
 6-311+G(2d,p)
 ****
 36  37 0
 6-311+G(2d,p)
 ****
 1  2  3  4  5  17  18  19  20  21  22  23  24  25 0
 3-21G
 ****
 26  28  29  30  38  39  40  41  42  43  44  45 0
 3-21G
 ****


