%nproc=1
%NoSave
%Mem=1900MB
#P OB98/GEN NMR

erre ene a

0 1
  C     -899.200    -893.408    -892.730
  O     -899.670    -893.028    -894.000
  H     -899.000    -892.538    -892.150
  H     -900.000    -893.968    -892.230
  H     -898.320    -894.038    -892.830
  P     -898.610    -892.338    -895.000
  C     -898.430    -894.318    -896.660
  O     -897.770    -893.528    -895.650
  C     -897.400    -895.158    -897.440
  O     -896.640    -894.248    -898.280
  C     -896.450    -895.958    -896.550
  O     -896.170    -897.198    -897.130
  C     -895.160    -895.098    -896.540
  O     -894.020    -895.868    -896.270
  C     -895.230    -894.508    -897.950
  N     -890.710    -892.558    -899.390
  C     -891.280    -893.778    -899.550
  N     -892.450    -894.238    -899.100
  C     -893.140    -893.238    -898.550
  C     -892.770    -891.898    -898.360
  C     -891.450    -891.598    -898.830
  N     -890.880    -890.338    -898.660
  N     -893.770    -891.168    -897.710
  C     -894.750    -892.068    -897.570
  N     -894.420    -893.338    -898.070
  O     -897.550    -891.688    -893.960
  O     -899.130    -891.288    -895.920
  H     -894.070    -896.718    -896.770
  H     -897.920    -890.858    -893.600
  H     -890.590    -894.518    -900.000
  H     -895.680    -891.818    -897.120
  H     -894.800    -895.218    -898.720
  H     -895.250    -894.288    -895.810
  H     -896.820    -896.038    -895.510
  H     -897.960    -895.818    -898.130
  H     -898.950    -893.638    -897.360
  H     -889.960    -890.198    -898.960
  H     -891.400    -889.628    -898.180
  H     -899.160    -894.958    -896.190
  P     -897.040    -898.428    -896.540
  C     -898.630    -898.968    -898.510
  O     -898.500    -898.408    -897.220
  O     -897.300    -898.048    -895.020
  O     -896.290    -899.748    -896.670
  H     -897.090    -898.798    -894.460
  H     -899.647    -898.886    -898.834
  H     -898.347    -900.000    -898.481
  H     -897.995    -898.443    -899.192

 6  7  8  9  10  11  12  13  14  15  25  28  32  33  34  35 0
 6-311+G(2d,p)
 ****
 36  39  40 0
 6-311+G(2d,p)
 ****
 1  2  3  4  5  16  17  18  19  20  21  22  23  24 0
 3-21G
 ****
 26  27  29  30  31  37  38  41  42  43  44  45  46  47 0
 3-21G
 ****
 48 0
 3-21G
 ****


