%nproc=1
%NoSave
%Mem=1900MB
#P OB98/GEN NMR

erre ene a

0 1
  C     -504.771      56.629     431.579
  O     -504.601      55.233     431.714
  H     -503.783      57.096     431.524
  H     -505.291      57.033     432.454
  H     -505.323      56.872     430.668
  P     -505.897      54.295     431.665
  C     -504.604      52.516     430.316
  O     -505.753      53.355     430.374
  C     -504.199      52.296     428.856
  O     -503.913      53.565     428.221
  C     -502.932      51.462     428.686
  O     -503.191      50.086     428.899
  C     -502.534      51.818     427.267
  O     -503.296      51.066     426.313
  C     -502.904      53.321     427.208
  N     -501.754      54.197     427.402
  C     -500.974      54.463     426.270
  O     -501.209      53.965     425.170
  N     -499.906      55.291     426.461
  C     -499.473      55.782     427.660
  O     -498.454      56.448     427.795
  C     -500.312      55.459     428.823
  C     -501.395      54.696     428.646
  O     -507.209      54.997     431.789
  O     -505.668      53.266     432.881
  H     -503.196      50.122     426.554
  H     -506.248      53.518     433.624
  H     -499.324      55.481     425.660
  H     -500.015      55.840     429.792
  H     -502.029      54.439     429.494
  H     -503.365      53.566     426.247
  H     -501.484      51.627     427.073
  H     -502.156      51.810     429.377
  H     -505.042      51.832     428.329
  H     -504.851      51.553     430.772
  H     -503.789      52.984     430.880
  P     -503.002      49.446     430.355
  C     -505.258      48.227     430.516
  O     -504.450      49.292     431.023
  O     -501.978      50.114     431.214
  O     -502.579      47.932     430.053
  H     -501.693      47.757     430.423
  H     -506.197      48.216     431.029
  H     -504.757      47.294     430.670
  H     -505.425      48.373     429.469

 6  7  8  9  10  11  12  13  14  15  16  26  31  32  33  34  35 0
 6-311+G(2d,p)
 ****
 36  37 0
 6-311+G(2d,p)
 ****
 1  2  3  4  5  17  18  19  20  21  22  23  24  25 0
 3-21G
 ****
 27  28  29  30  38  39  40  41  42  43  44  45 0
 3-21G
 ****


