%nproc=1
%NoSave
%Mem=1900MB
#P OB98/GEN NMR

erre ene a

0 1
  C     -724.808     455.200     174.836
  O     -724.709     456.188     175.840
  H     -724.521     454.238     175.262
  H     -724.130     455.439     174.011
  H     -725.840     455.131     174.465
  P     -725.230     457.670     175.486
  C     -722.923     458.264     174.455
  O     -724.331     458.195     174.270
  C     -722.312     459.331     173.538
  O     -722.483     458.903     172.163
  C     -722.965     460.715     173.690
  O     -721.937     461.712     173.577
  C     -723.900     460.807     172.491
  O     -724.159     462.156     172.095
  C     -723.129     459.978     171.444
  N     -724.039     459.464     170.408
  C     -724.303     460.312     169.335
  O     -723.801     461.446     169.289
  N     -725.188     459.890     168.370
  C     -725.802     458.768     168.514
  N     -726.681     458.432     167.527
  C     -725.598     457.864     169.666
  C     -724.707     458.271     170.553
  O     -724.725     458.541     176.728
  O     -726.707     457.785     175.270
  H     -724.862     462.520     172.683
  H     -725.341     459.280     176.910
  H     -726.162     456.945     169.741
  H     -724.489     457.681     171.440
  H     -722.350     460.586     170.958
  H     -724.855     460.326     172.728
  H     -723.498     460.842     174.630
  H     -721.239     459.379     173.741
  H     -726.812     459.072     166.757
  H     -722.490     457.290     174.208
  H     -727.262     457.584     167.553
  H     -722.706     458.488     175.505
  P     -721.530     462.480     174.929
  C     -721.940     464.705     173.641
  O     -722.119     463.973     174.849
  O     -719.949     462.682     174.774
  O     -721.875     461.727     176.168
  H     -719.474     462.097     175.395
  H     -722.383     465.674     173.742
  H     -722.408     464.181     172.834
  H     -720.894     464.810     173.439

 6  7  8  9  10  11  12  13  14  15  16  26  30  31  32  33  35 0
 6-311+G(2d,p)
 ****
 37  38 0
 6-311+G(2d,p)
 ****
 1  2  3  4  5  17  18  19  20  21  22  23  24  25 0
 3-21G
 ****
 27  28  29  34  36  39  40  41  42  43  44  45  46 0
 3-21G
 ****


