%nproc=1
%NoSave
%Mem=1900MB
#P OB98/GEN NMR

erre ene a

0 1
  C      -23.306    -861.364     104.978
  O      -24.402    -861.736     105.823
  P      -25.848    -861.126     105.473
  C      -26.034    -859.463     107.495
  O      -25.851    -859.646     106.098
  C      -26.487    -858.036     107.781
  O      -27.368    -857.556     106.734
  C      -27.281    -857.881     109.073
  O      -26.431    -857.941     110.210
  C      -27.942    -856.530     108.849
  O      -27.021    -855.463     109.135
  C      -28.242    -856.567     107.330
  N      -29.638    -856.837     107.027
  C      -30.276    -855.893     106.226
  O      -29.716    -854.874     105.810
  N      -31.587    -856.143     105.930
  C      -32.320    -857.208     106.375
  O      -33.485    -857.392     106.072
  C      -31.603    -858.143     107.257
  C      -30.320    -857.924     107.539
  O      -26.785    -861.972     106.445
  O      -26.182    -861.223     104.022
  H      -26.362    -862.180     107.298
  H      -27.497    -854.632     108.960
  H      -32.066    -855.477     105.342
  H      -32.159    -858.985     107.649
  H      -29.777    -858.597     108.190
  H      -27.966    -855.609     106.865
  H      -28.824    -856.382     109.482
  H      -28.043    -858.662     109.137
  H      -25.600    -857.392     107.804
  H      -25.090    -859.655     108.020
  H      -26.761    -860.197     107.854
  P      -26.472    -859.310     111.067
  C      -28.369    -858.342     112.585
  O      -27.926    -859.377     111.737
  O      -25.496    -858.939     112.282
  O      -26.062    -860.516     110.293
  H      -25.662    -858.047     112.640
  H      -29.460    -858.384     112.654
  H      -28.082    -857.358     112.204
  H      -27.944    -858.480     113.586
  H      -22.412    -861.839     105.324
  H      -23.179    -860.302     105.005
  H      -23.509    -861.674     103.974

 3  4  5  6  7  8  9  10  11  12  13  24  28  29  30  31  32 0
 6-311+G(2d,p)
 ****
 33  34 0
 6-311+G(2d,p)
 ****
 1  2  14  15  16  17  18  19  20  21  22  23  25  26  27 0
 3-21G
 ****
 35  36  37  38  39  40  41  42  43  44  45 0
 3-21G
 ****


