%nproc=1
%NoSave
%Mem=1900MB
#P OB98/GEN NMR

erre ene a

0 1
  C       63.453    -426.232    -343.419
  O       63.688    -427.541    -342.930
  P       62.762    -428.733    -343.459
  C       64.033    -429.824    -345.446
  O       63.035    -428.902    -345.031
  C       63.507    -430.694    -346.592
  O       62.323    -431.421    -346.142
  C       63.110    -429.903    -347.845
  O       63.403    -430.725    -348.985
  C       61.606    -429.770    -347.688
  O       60.940    -429.475    -348.904
  C       61.278    -431.145    -347.093
  N       59.955    -431.191    -346.471
  C       59.022    -432.064    -347.022
  O       59.242    -432.785    -347.993
  N       57.776    -432.035    -346.454
  C       57.354    -431.184    -345.477
  O       56.192    -431.131    -345.093
  C       58.384    -430.285    -344.930
  C       59.617    -430.330    -345.446
  O       61.287    -428.106    -343.397
  O       62.861    -429.997    -342.674
  H       60.011    -429.276    -348.691
  H       60.820    -428.414    -342.599
  H       57.086    -432.670    -346.833
  H       58.092    -429.609    -344.139
  H       60.389    -429.663    -345.076
  H       61.339    -431.915    -347.871
  H       61.386    -428.965    -346.977
  H       63.612    -428.936    -347.935
  H       64.271    -431.442    -346.838
  H       64.304    -430.464    -344.606
  H       64.929    -429.276    -345.757
  P       63.978    -430.007    -350.301
  C       66.358    -429.876    -349.230
  O       65.285    -429.202    -349.850
  O       62.875    -428.865    -350.524
  O       64.130    -430.925    -351.469
  H       62.617    -428.425    -349.698
  H       66.478    -430.889    -349.617
  H       66.178    -429.921    -348.152
  H       67.280    -429.318    -349.409
  H       64.150    -425.554    -342.973
  H       62.456    -425.933    -343.172
  H       63.576    -426.221    -344.482

 3  4  5  6  7  8  9  10  11  12  13  23  28  29  30  31  32 0
 6-311+G(2d,p)
 ****
 33  34 0
 6-311+G(2d,p)
 ****
 1  2  14  15  16  17  18  19  20  21  22  24  25  26 0
 3-21G
 ****
 27  35  36  37  38  39  40  41  42  43  44  45 0
 3-21G
 ****


