%nproc=1
%NoSave
%Mem=1900MB
#P OB98/GEN NMR

erre ene a

0 1
  C      357.495    -500.080     381.569
  O      356.823    -501.322     381.577
  H      358.391    -500.162     382.186
  H      356.849    -499.307     381.990
  H      357.788    -499.807     380.552
  P      355.554    -501.483     380.606
  C      354.145    -503.477     379.718
  O      355.238    -503.057     380.523
  C      354.312    -504.944     379.314
  O      355.178    -505.011     378.152
  C      354.931    -505.814     380.412
  O      354.297    -507.097     380.387
  C      356.380    -505.959     379.984
  O      356.992    -507.141     380.499
  C      356.256    -505.915     378.455
  N      357.507    -505.496     377.826
  C      358.537    -506.443     377.786
  O      358.366    -507.567     378.266
  N      359.745    -506.083     377.250
  C      359.945    -504.859     376.871
  N      361.174    -504.554     376.378
  C      358.910    -503.807     376.962
  C      357.724    -504.196     377.439
  O      356.150    -501.154     379.157
  O      354.376    -500.633     380.945
  H      357.868    -507.246     380.070
  H      355.480    -500.738     378.585
  H      359.128    -502.791     376.660
  H      356.909    -503.490     377.548
  H      355.978    -506.907     378.062
  H      356.955    -505.099     380.340
  H      354.839    -505.381     381.411
  H      353.333    -505.334     379.009
  H      361.863    -505.295     376.348
  H      354.114    -502.862     378.813
  H      361.454    -503.624     376.097
  H      353.210    -503.337     380.274
  P      353.266    -507.412     381.570
  C      352.043    -509.502     382.520
  O      353.000    -508.995     381.602
  O      351.885    -506.805     381.036
  O      353.660    -506.815     382.886
  H      351.661    -505.995     381.534
  H      351.981    -510.566     382.420
  H      351.087    -509.068     382.314
  H      352.340    -509.254     383.518

 6  7  8  9  10  11  12  13  14  15  16  26  30  31  32  33  35 0
 6-311+G(2d,p)
 ****
 37  38 0
 6-311+G(2d,p)
 ****
 1  2  3  4  5  17  18  19  20  21  22  23  24  25 0
 3-21G
 ****
 27  28  29  34  36  39  40  41  42  43  44  45  46 0
 3-21G
 ****


