%nproc=1
%NoSave
%Mem=1900MB
#P OB98/GEN NMR

erre ene a

0 1
  C     -421.602    -642.755    -183.864
  O     -420.254    -642.510    -184.233
  P     -419.110    -642.364    -183.132
  C     -417.235    -642.965    -184.781
  O     -417.739    -641.985    -183.886
  C     -415.916    -642.502    -185.437
  O     -416.217    -641.521    -186.460
  C     -414.933    -641.873    -184.446
  O     -413.617    -642.293    -184.847
  C     -415.107    -640.387    -184.693
  O     -413.972    -639.618    -184.276
  C     -415.393    -640.365    -186.187
  N     -416.037    -639.133    -186.622
  C     -415.258    -638.219    -187.339
  O     -414.046    -638.411    -187.476
  N     -415.868    -637.116    -187.870
  C     -417.097    -636.850    -187.571
  N     -417.684    -635.783    -188.184
  C     -417.887    -637.663    -186.616
  C     -417.312    -638.795    -186.206
  O     -418.995    -643.505    -182.184
  O     -419.474    -641.004    -182.348
  H     -419.515    -641.192    -181.384
  H     -414.100    -638.694    -184.562
  H     -418.856    -637.332    -186.276
  H     -417.811    -639.476    -185.529
  H     -414.465    -640.487    -186.760
  H     -415.986    -640.017    -184.134
  H     -415.106    -642.166    -183.418
  H     -415.456    -643.362    -185.917
  H     -417.132    -635.280    -188.856
  H     -417.985    -643.120    -185.565
  H     -418.702    -635.690    -188.236
  H     -417.098    -643.913    -184.264
  P     -412.597    -642.773    -183.703
  C     -411.480    -644.677    -185.097
  O     -411.318    -643.433    -184.426
  O     -413.361    -644.087    -183.132
  O     -412.336    -641.830    -182.572
  H     -413.064    -644.240    -182.209
  H     -410.502    -644.982    -185.466
  H     -412.157    -644.554    -185.939
  H     -411.864    -645.419    -184.420
  H     -422.207    -642.819    -184.744
  H     -421.954    -641.955    -183.247
  H     -421.662    -643.676    -183.322

 3  4  5  6  7  8  9  10  11  12  13  24  27  28  29  30  32 0
 6-311+G(2d,p)
 ****
 34  35 0
 6-311+G(2d,p)
 ****
 1  2  14  15  16  17  18  19  20  21  22  23  25  26 0
 3-21G
 ****
 31  33  36  37  38  39  40  41  42  43  44  45  46 0
 3-21G
 ****


