%nproc=1
%NoSave
%Mem=1900MB
#P OB98/GEN NMR

erre ene a

0 1
  C       66.686     123.994     123.888
  O       67.190     123.695     122.606
  P       67.018     122.228     121.983
  C       69.250     120.947     121.997
  O       68.082     121.291     122.738
  C       70.337     121.996     122.214
  O       70.433     122.370     123.614
  C       71.739     121.523     121.856
  O       72.004     121.246     120.499
  C       72.592     122.587     122.526
  O       72.678     123.766     121.728
  C       71.781     122.863     123.818
  N       72.408     122.264     124.994
  C       73.579     122.870     125.438
  O       74.084     123.853     124.895
  N       74.180     122.289     126.520
  C       73.760     121.158     127.159
  O       74.373     120.667     128.098
  C       72.527     120.554     126.638
  C       71.915     121.122     125.595
  O       67.076     122.159     120.494
  O       65.628     121.728     122.604
  H       72.925     124.504     122.316
  H       65.607     121.687     123.576
  H       75.036     122.705     126.849
  H       72.160     119.663     127.129
  H       71.003     120.692     125.190
  H       71.694     123.945     123.988
  H       73.618     122.238     122.698
  H       71.926     120.580     122.389
  H       70.061     122.896     121.658
  H       68.999     120.908     120.933
  H       69.591     119.950     122.299
  P       73.309     120.467     119.995
  C       74.878     122.155     118.811
  O       74.545     121.487     120.008
  O       73.148     119.594     118.793
  O       73.637     119.539     121.268
  H       74.050     118.711     120.959
  H       75.766     122.772     118.990
  H       74.059     122.806     118.495
  H       75.111     121.435     118.022
  H       66.898     125.016     124.125
  H       67.150     123.357     124.611
  H       65.628     123.837     123.901

 3  4  5  6  7  8  9  10  11  12  13  23  28  29  30  31  32 0
 6-311+G(2d,p)
 ****
 33  34 0
 6-311+G(2d,p)
 ****
 1  2  14  15  16  17  18  19  20  21  22  24  25  26  27 0
 3-21G
 ****
 35  36  37  38  39  40  41  42  43  44  45 0
 3-21G
 ****


