%nproc=1
%NoSave
%Mem=1900MB
#P OB98/GEN NMR

erre ene a

0 1
  C     -184.304    -151.090    -764.346
  O     -185.188    -150.429    -763.438
  P     -186.424    -149.636    -764.094
  C     -186.835    -147.288    -765.131
  O     -185.880    -148.207    -764.604
  C     -186.243    -145.875    -765.226
  O     -186.146    -145.253    -763.909
  C     -184.844    -145.818    -765.857
  O     -184.763    -144.598    -766.604
  C     -183.939    -145.717    -764.643
  O     -182.641    -145.236    -764.991
  C     -184.776    -144.791    -763.764
  N     -181.731    -142.649    -760.349
  C     -181.801    -142.465    -761.706
  N     -180.975    -141.523    -762.242
  N     -182.619    -143.122    -762.491
  C     -183.414    -143.993    -761.817
  C     -183.450    -144.260    -760.463
  C     -182.515    -143.543    -759.618
  O     -182.408    -143.670    -758.406
  N     -184.412    -145.192    -760.159
  C     -184.912    -145.534    -761.322
  N     -184.376    -144.801    -762.373
  O     -187.341    -149.273    -762.836
  O     -187.167    -150.439    -765.121
  H     -182.756    -144.367    -765.435
  H     -188.087    -149.895    -762.773
  H     -181.079    -142.119    -759.792
  H     -185.668    -146.283    -761.492
  H     -184.734    -143.751    -764.093
  H     -183.815    -146.702    -764.181
  H     -180.365    -140.949    -761.693
  H     -184.607    -146.675    -766.501
  H     -181.032    -141.336    -763.234
  H     -186.942    -145.257    -765.823
  H     -187.715    -147.270    -764.492
  H     -187.166    -147.655    -766.115
  P     -184.387    -144.684    -768.162
  C     -182.223    -144.607    -769.580
  O     -182.803    -144.637    -768.280
  O     -184.853    -143.259    -768.739
  O     -185.072    -145.804    -768.901
  H     -185.253    -143.377    -769.618
  H     -181.245    -144.115    -769.522
  H     -182.854    -144.060    -770.290
  H     -182.078    -145.622    -769.939
  H     -183.527    -151.579    -763.796
  H     -183.872    -150.371    -765.010
  H     -184.851    -151.815    -764.912

 3  4  5  6  7  8  9  10  11  12  23  26  30  31 0
 6-311+G(2d,p)
 ****
 33  35  36  37  38 0
 6-311+G(2d,p)
 ****
 1  2  13  14  15  16  17  18  19  20  21  22  24  25 0
 3-21G
 ****
 27  28  29  32  34  39  40  41  42  43  44  45  46  47  48  49 0
 3-21G
 ****


