%nproc=1
%NoSave
%Mem=1900MB
#P OB98/GEN NMR

erre ene a

0 1
  C      516.129     531.202     -71.550
  O      515.391     531.276     -70.345
  H      516.299     532.220     -71.916
  H      515.559     530.649     -72.301
  H      517.093     530.720     -71.377
  P      515.182     529.902     -69.542
  C      512.802     530.807     -68.907
  O      514.006     530.189     -68.494
  C      511.963     531.236     -67.698
  O      511.818     530.095     -66.809
  C      512.587     532.375     -66.892
  O      511.534     533.210     -66.397
  C      513.255     531.660     -65.730
  O      513.441     532.523     -64.606
  C      512.287     530.489     -65.503
  N      512.914     529.377     -64.801
  C      512.064     528.367     -64.325
  O      510.847     528.450     -64.502
  N      512.602     527.314     -63.630
  C      513.872     527.294     -63.373
  N      514.342     526.238     -62.657
  C      514.803     528.363     -63.811
  C      514.261     529.349     -64.511
  O      516.497     529.851     -68.633
  O      514.984     528.704     -70.410
  H      514.106     533.204     -64.845
  H      516.709     530.702     -68.211
  H      515.854     528.306     -63.561
  H      514.871     530.172     -64.886
  H      511.416     530.820     -64.916
  H      514.242     531.289     -66.031
  H      513.284     532.979     -67.476
  H      510.961     531.500     -68.049
  H      513.665     525.546     -62.364
  H      512.214     530.123     -69.532
  H      515.301     526.149     -62.348
  H      513.061     531.681     -69.520
  P      510.828     534.260     -67.379
  C      510.170     536.147     -65.730
  O      509.710     535.080     -66.565
  O      510.375     533.707     -68.694
  O      511.974     535.361     -67.599
  H      511.957     535.628     -68.539
  H      509.334     536.608     -65.248
  H      510.682     536.872     -66.327
  H      510.838     535.758     -64.990

 6  7  8  9  10  11  12  13  14  15  16  26  30  31  32  33  35 0
 6-311+G(2d,p)
 ****
 37  38 0
 6-311+G(2d,p)
 ****
 1  2  3  4  5  17  18  19  20  21  22  23  24  25 0
 3-21G
 ****
 27  28  29  34  36  39  40  41  42  43  44  45  46 0
 3-21G
 ****


