%nproc=1
%NoSave
%Mem=1900MB
#P OB98/GEN NMR

erre ene a

0 1
  C      -35.969     394.552    -221.061
  O      -34.615     394.239    -221.354
  P      -33.921     393.073    -220.485
  C      -31.802     394.513    -220.062
  O      -32.909     393.819    -219.490
  C      -31.011     395.245    -218.979
  O      -31.864     396.174    -218.301
  C      -30.439     394.346    -217.887
  O      -29.246     393.711    -218.292
  C      -30.194     395.352    -216.782
  O      -28.937     396.020    -217.016
  C      -31.363     396.336    -216.950
  N      -34.880     398.575    -214.073
  C      -33.936     399.130    -214.910
  N      -33.948     400.475    -215.030
  N      -33.056     398.430    -215.589
  C      -33.184     397.095    -215.406
  C      -34.076     396.425    -214.598
  C      -35.012     397.211    -213.825
  O      -35.822     396.769    -213.010
  N      -33.909     395.070    -214.691
  C      -32.954     394.917    -215.587
  N      -32.464     396.121    -216.023
  O      -32.939     392.370    -221.542
  O      -34.859     392.099    -219.866
  H      -28.240     395.335    -217.002
  H      -32.773     391.448    -221.275
  H      -35.536     399.155    -213.595
  H      -32.581     393.963    -215.940
  H      -31.024     397.377    -216.857
  H      -30.129     394.894    -215.788
  H      -34.686     401.062    -214.630
  H      -31.198     393.613    -217.553
  H      -33.292     400.898    -215.673
  H      -30.210     395.805    -219.465
  H      -32.158     395.239    -220.793
  H      -31.163     393.781    -220.568
  P      -28.851     392.358    -217.509
  C      -26.642     393.453    -216.680
  O      -27.859     392.824    -216.334
  O      -27.894     391.608    -218.541
  O      -30.014     391.522    -217.101
  H      -27.915     390.636    -218.384
  H      -26.751     394.097    -217.562
  H      -25.882     392.685    -216.881
  H      -26.308     394.066    -215.842
  H      -36.301     395.337    -221.707
  H      -36.049     394.870    -220.043
  H      -36.576     393.684    -221.213

 3  4  5  6  7  8  9  10  11  12  23  26  30  31  33  0
 6-311+G(2d,p)
 ****
 35  36  37  38 0
 6-311+G(2d,p)
 ****
 1  2  13  14  15  16  17  18  19  20  21  22  24  25  27  28  29 0
 3-21G
 ****
 32  34  39  40  41  42  43  44  45  46  47  48  49 0
 3-21G
 ****


