%nproc=1
%NoSave
%Mem=1900MB
#P OB98/GEN NMR

erre ene a

0 1
  C     -201.005     -63.344     306.065
  O     -202.054     -62.775     306.820
  H     -200.816     -64.355     306.426
  H     -200.095     -62.749     306.186
  H     -201.278     -63.390     305.005
  P     -202.576     -61.326     306.375
  C     -200.569     -60.066     307.465
  O     -201.272     -60.392     306.273
  C     -199.666     -58.855     307.220
  O     -200.502     -57.692     306.963
  C     -198.768     -58.516     308.419
  O     -197.502     -58.057     307.937
  C     -199.508     -57.374     309.092
  O     -198.671     -56.544     309.894
  C     -200.105     -56.656     307.881
  N     -201.246     -55.809     308.234
  C     -201.015     -54.755     309.108
  O     -199.914     -54.438     309.553
  N     -202.133     -54.047     309.485
  C     -203.418     -54.299     309.104
  O     -204.372     -53.642     309.491
  C     -203.598     -55.431     308.179
  C     -202.521     -56.126     307.798
  O     -203.312     -60.779     307.689
  O     -203.454     -61.294     305.171
  H     -204.256     -61.025     307.679
  H     -199.208     -55.787     310.208
  H     -201.981     -53.276     310.125
  H     -204.603     -55.665     307.855
  H     -202.621     -56.974     307.127
  H     -199.338     -56.052     307.382
  H     -200.302     -57.771     309.737
  H     -198.617     -59.362     309.091
  H     -199.069     -59.030     306.314
  H     -199.954     -60.918     307.764
  H     -201.289     -59.848     308.258
  P     -196.322     -59.140     307.810
  C     -195.339     -59.296     310.231
  O     -196.210     -59.840     309.253
  O     -195.032     -58.201     307.724
  O     -196.512     -60.073     306.659
  H     -195.090     -57.404     308.280
  H     -195.392     -59.885     311.123
  H     -195.632     -58.290     310.450
  H     -194.336     -59.302     309.858

 6  7  8  9  10  11  12  13  14  15  16  27  31  32  33  34  35 0
 6-311+G(2d,p)
 ****
 36  37 0
 6-311+G(2d,p)
 ****
 1  2  3  4  5  17  18  19  20  21  22  23  24  25 0
 3-21G
 ****
 26  28  29  30  38  39  40  41  42  43  44  45 0
 3-21G
 ****


