%nproc=1
%NoSave
%Mem=1900MB
#P OB98/GEN NMR

erre ene a

0 1
  C     -371.767     216.506       0.318
  O     -370.938     217.609      -0.011
  P     -369.438     217.380      -0.527
  C     -369.875     217.618      -3.049
  O     -369.554     216.725      -1.989
  C     -368.885     217.464      -4.201
  O     -367.557     217.782      -3.721
  C     -368.837     216.054      -4.776
  O     -368.626     216.135      -6.189
  C     -367.603     215.431      -4.146
  O     -367.067     214.384      -4.971
  C     -366.698     216.656      -3.983
  N     -362.464     214.302      -2.288
  C     -363.119     214.231      -3.467
  N     -364.251     214.865      -3.841
  C     -364.676     215.683      -2.866
  C     -364.110     215.864      -1.612
  C     -362.950     215.123      -1.331
  N     -362.276     215.206      -0.130
  N     -364.848     216.766      -0.869
  C     -365.827     217.133      -1.665
  N     -365.760     216.518      -2.887
  O     -368.554     216.640       0.414
  O     -368.889     218.849      -0.831
  H     -367.693     213.632      -4.922
  H     -367.951     218.920      -0.572
  H     -362.674     213.575      -4.212
  H     -366.608     217.831      -1.407
  H     -366.133     216.866      -4.900
  H     -367.866     214.994      -3.177
  H     -369.744     215.476      -4.566
  H     -369.136     218.193      -4.980
  H     -369.824     218.643      -2.665
  H     -361.390     214.736      -0.066
  H     -362.536     215.943       0.511
  H     -370.899     217.426      -3.390
  P     -369.305     214.971      -7.070
  C     -370.987     216.033      -8.749
  O     -370.753     215.540      -7.449
  O     -369.250     213.646      -6.385
  O     -368.448     215.063      -8.420
  H     -368.062     215.959      -8.540
  H     -372.012     216.409      -8.802
  H     -370.874     215.231      -9.483
  H     -370.296     216.849      -8.980
  H     -372.723     216.862       0.640
  H     -371.313     215.941       1.106
  H     -371.889     215.883      -0.543

 3  4  5  6  7  8  9  10  11  12  22  25  29  30  31  32 0
 6-311+G(2d,p)
 ****
 33  36  37 0
 6-311+G(2d,p)
 ****
 1  2  13  14  15  16  17  18  19  20  21  23  24  26 0
 3-21G
 ****
 27  28  34  35  38  39  40  41  42  43  44  45  46  47  48 0
 3-21G
 ****


