%nproc=1
%NoSave
%Mem=1900MB
#P OB98/GEN NMR

erre ene a

0 1
  C     -248.682     341.244    -268.458
  O     -249.088     342.154    -269.460
  H     -249.303     341.406    -267.572
  H     -247.639     341.423    -268.190
  H     -248.813     340.212    -268.793
  P     -248.439     342.040    -270.919
  C     -246.397     343.071    -272.118
  O     -247.295     343.167    -271.023
  C     -245.652     344.394    -272.327
  O     -246.605     345.390    -272.789
  C     -244.992     344.935    -271.059
  O     -243.746     345.550    -271.405
  C     -245.964     345.992    -270.574
  O     -245.326     346.999    -269.789
  C     -246.547     346.511    -271.885
  N     -249.057     350.705    -270.594
  C     -247.703     350.495    -270.769
  N     -246.895     351.553    -270.554
  N     -247.189     349.346    -271.124
  C     -248.118     348.380    -271.329
  C     -249.483     348.463    -271.188
  C     -250.039     349.735    -270.771
  O     -251.229     349.975    -270.584
  N     -250.086     347.259    -271.468
  C     -249.087     346.455    -271.777
  N     -247.872     347.083    -271.694
  O     -249.420     342.044    -272.050
  O     -247.603     340.678    -270.878
  H     -245.145     346.600    -268.908
  H     -248.057     339.974    -271.371
  H     -249.398     351.603    -270.308
  H     -249.188     345.415    -272.057
  H     -245.924     347.293    -272.337
  H     -246.741     345.519    -269.955
  H     -247.224     352.473    -270.303
  H     -244.818     344.154    -270.317
  H     -245.897     351.437    -270.706
  H     -244.920     344.257    -273.130
  H     -246.972     342.825    -273.016
  H     -245.679     342.264    -271.926
  P     -242.380     344.745    -271.163
  C     -240.741     344.282    -269.239
  O     -242.010     344.809    -269.602
  O     -241.263     345.081    -272.093
  O     -242.838     343.213    -271.351
  H     -242.106     342.715    -271.758
  H     -240.604     344.377    -268.182
  H     -239.971     344.823    -269.749
  H     -240.692     343.249    -269.513

 6  7  8  9  10  11  12  13  14  15  26  29  33  34 0
 6-311+G(2d,p)
 ****
 36  38  39  40  41 0
 6-311+G(2d,p)
 ****
 1  2  3  4  5  16  17  18  19  20  21  22  23  24  25 0
 3-21G
 ****
 27  28  30  31  32  35  37  42  43  44  45  46  47 0
 3-21G
 ****
 48  49 0
 3-21G
 ****


