%nproc=1
%NoSave
%Mem=1900MB
#P OB98/GEN NMR

erre ene a

0 1
  C       78.178    1152.603    1280.701
  O       78.249    1151.278    1280.215
  H       77.432    1152.632    1281.506
  H       77.886    1153.274    1279.914
  H       79.144    1152.893    1281.116
  P       79.208    1151.006    1278.967
  C       77.971    1152.457    1277.193
  O       78.309    1151.146    1277.651
  C       77.502    1152.365    1275.732
  O       78.614    1152.088    1274.873
  C       76.468    1151.272    1275.470
  O       75.148    1151.621    1275.899
  C       76.594    1151.117    1273.971
  O       75.751    1152.087    1273.277
  C       78.086    1151.405    1273.697
  N       78.811    1150.179    1273.411
  C       80.032    1150.289    1272.780
  O       80.501    1151.406    1272.486
  N       80.720    1149.161    1272.474
  C       80.257    1147.895    1272.685
  O       80.871    1146.889    1272.321
  C       78.918    1147.757    1273.318
  C       78.270    1148.915    1273.653
  O       79.519    1149.429    1279.055
  O       80.469    1151.813    1278.944
  H       80.437    1149.296    1279.359
  H       74.857    1152.002    1273.694
  H       81.593    1149.259    1272.032
  H       78.509    1146.797    1273.480
  H       77.290    1148.835    1274.115
  H       78.211    1152.071    1272.844
  H       76.253    1150.135    1273.637
  H       76.817    1150.328    1275.950
  H       77.057    1153.357    1275.468
  H       78.844    1153.114    1277.234
  H       77.181    1152.859    1277.837
  P       74.241    1150.441    1276.549
  C       73.180    1149.510    1274.314
  O       73.007    1150.241    1275.544
  O       73.641    1151.252    1277.796
  O       75.039    1149.248    1276.917
  H       73.563    1152.222    1277.613
  H       72.252    1149.483    1273.782
  H       73.494    1148.511    1274.534
  H       73.922    1149.993    1273.713

 6  7  8  9  10  11  12  13  14  15  16  27  31  32  33  34  35 0
 6-311+G(2d,p)
 ****
 36  37 0
 6-311+G(2d,p)
 ****
 1  2  3  4  5  17  18  19  20  21  22  23  24  25 0
 3-21G
 ****
 26  28  29  30  38  39  40  41  42  43  44  45 0
 3-21G
 ****


