%nproc=1
%NoSave
%Mem=1900MB
#P OB98/GEN NMR

erre ene a

0 1
  C     -219.930    -229.199     -59.696
  O     -220.154    -230.338     -60.503
  P     -219.240    -231.644     -60.339
  C     -221.110    -232.789     -61.699
  O     -219.705    -232.636     -61.515
  C     -221.485    -232.636     -63.174
  O     -220.677    -233.499     -63.994
  C     -222.931    -232.998     -63.487
  O     -223.806    -231.957     -63.090
  C     -222.855    -233.225     -64.991
  O     -222.933    -231.983     -65.712
  C     -221.458    -233.862     -65.153
  N     -221.525    -235.309     -65.329
  C     -220.864    -235.818     -66.454
  O     -220.300    -235.056     -67.242
  N     -220.899    -237.172     -66.683
  C     -221.555    -237.943     -65.872
  N     -221.565    -239.272     -66.159
  C     -222.292    -237.443     -64.694
  C     -222.235    -236.129     -64.487
  O     -219.213    -232.240     -58.973
  O     -217.803    -231.145     -60.845
  H     -223.821    -231.618     -65.528
  H     -217.369    -230.564     -60.174
  H     -222.835    -238.123     -64.056
  H     -222.750    -235.677     -63.648
  H     -220.940    -233.436     -66.021
  H     -223.675    -233.856     -65.354
  H     -223.194    -233.939     -62.988
  H     -221.284    -231.597     -63.469
  H     -221.074    -239.572     -66.993
  H     -221.619    -232.018     -61.116
  H     -222.072    -239.956     -65.614
  H     -221.420    -233.767     -61.320
  P     -225.049    -232.280     -62.137
  C     -225.053    -229.872     -61.255
  O     -225.816    -230.904     -61.848
  O     -224.733    -233.100     -60.927
  O     -226.065    -233.062     -63.100
  H     -226.422    -233.833     -62.623
  H     -225.565    -228.919     -61.416
  H     -224.053    -229.818     -61.697
  H     -224.966    -230.050     -60.183
  H     -220.636    -228.436     -59.952
  H     -218.937    -228.836     -59.860
  H     -220.048    -229.463     -58.666

 3  4  5  6  7  8  9  10  11  12  13  23  27  28  29  30  32 0
 6-311+G(2d,p)
 ****
 34  35 0
 6-311+G(2d,p)
 ****
 1  2  14  15  16  17  18  19  20  21  22  24  25  26 0
 3-21G
 ****
 31  33  36  37  38  39  40  41  42  43  44  45  46 0
 3-21G
 ****


