%nproc=1
%NoSave
%Mem=1900MB
#P OB98/GEN NMR

erre ene a

0 1
  C      -23.589    -597.060    -160.123
  O      -23.624    -598.436    -159.735
  P      -23.197    -599.522    -160.833
  C      -24.170    -600.443    -163.052
  O      -24.423    -599.726    -161.855
  C      -25.250    -600.168    -164.110
  O      -26.554    -600.630    -163.641
  C      -25.404    -598.692    -164.470
  O      -25.772    -598.615    -165.851
  C      -26.590    -598.254    -163.625
  O      -27.173    -597.050    -164.135
  C      -27.463    -599.507    -163.712
  N      -32.006    -597.771    -162.124
  C      -31.278    -597.531    -163.243
  N      -30.061    -598.015    -163.583
  C      -29.620    -598.869    -162.635
  C      -30.236    -599.203    -161.445
  C      -31.482    -598.609    -161.194
  N      -32.214    -598.829    -160.043
  N      -29.446    -600.074    -160.716
  C      -28.363    -600.251    -161.453
  N      -28.439    -599.569    -162.642
  O      -23.172    -600.895    -160.003
  O      -21.871    -599.254    -161.468
  H      -27.470    -597.223    -165.059
  H      -22.248    -601.184    -159.864
  H      -31.737    -596.852    -163.968
  H      -27.517    -600.845    -161.179
  H      -28.018    -599.564    -164.661
  H      -26.266    -598.075    -162.593
  H      -24.512    -598.079    -164.277
  H      -25.006    -600.750    -165.012
  H      -24.128    -601.516    -162.851
  H      -33.087    -598.346    -159.929
  H      -31.817    -599.413    -159.323
  H      -23.169    -600.176    -163.430
  P      -25.157    -597.384    -166.688
  C      -26.160    -595.289    -167.845
  O      -26.378    -596.382    -166.984
  O      -24.844    -598.030    -168.126
  O      -23.944    -596.767    -166.079
  H      -24.141    -597.536    -168.568
  H      -27.050    -595.160    -168.476
  H      -25.291    -595.438    -168.488
  H      -26.022    -594.387    -167.251
  H      -23.896    -596.449    -159.300
  H      -24.252    -596.905    -160.948
  H      -22.593    -596.796    -160.411

 3  4  5  6  7  8  9  10  11  12  22  25  29  30  31  32 0
 6-311+G(2d,p)
 ****
 33  36  37 0
 6-311+G(2d,p)
 ****
 1  2  13  14  15  16  17  18  19  20  21  23  24  26 0
 3-21G
 ****
 27  28  34  35  38  39  40  41  42  43  44  45  46  47  48 0
 3-21G
 ****


