%nproc=1
%NoSave
%Mem=1900MB
#P OB98/GEN NMR

erre ene a

0 1
  C      -11.489    -288.967    -128.368
  O      -11.708    -288.182    -129.522
  H      -11.887    -289.969    -128.549
  H      -12.002    -288.537    -127.504
  H      -10.418    -289.051    -128.163
  P      -11.315    -286.624    -129.471
  C       -8.812    -287.288    -129.622
  O       -9.818    -286.615    -128.878
  C       -7.784    -286.285    -130.141
  O       -7.216    -285.513    -129.064
  C       -6.581    -286.908    -130.844
  O       -6.875    -287.403    -132.141
  C       -5.645    -285.711    -130.877
  O       -6.064    -284.800    -131.907
  C       -5.880    -285.106    -129.470
  N       -4.889    -285.545    -128.488
  C       -3.701    -284.808    -128.423
  O       -3.523    -283.841    -129.166
  N       -2.725    -285.204    -127.538
  C       -2.910    -286.253    -126.800
  N       -1.891    -286.631    -125.977
  C       -4.152    -287.049    -126.826
  C       -5.086    -286.648    -127.681
  O      -12.283    -285.722    -128.778
  O      -11.057    -286.228    -131.001
  H       -6.054    -285.292    -132.746
  H      -10.821    -285.269    -131.024
  H       -4.251    -287.921    -126.194
  H       -6.019    -287.194    -127.773
  H       -5.876    -284.009    -129.512
  H       -4.604    -285.982    -131.087
  H       -6.128    -287.689    -130.222
  H       -8.311    -285.580    -130.800
  H       -1.035    -286.085    -126.020
  H       -9.298    -287.820    -130.449
  H       -1.840    -287.567    -125.591
  H       -8.297    -288.013    -128.986
  P       -5.955    -288.583    -132.720
  C       -7.483    -290.343    -131.553
  O       -6.170    -289.852    -131.760
  O       -4.475    -288.089    -132.373
  O       -6.130    -288.886    -134.178
  H       -4.077    -287.608    -133.121
  H       -7.449    -291.184    -130.893
  H       -7.904    -290.642    -132.490
  H       -8.087    -289.574    -131.120

 6  7  8  9  10  11  12  13  14  15  16  26  30  31  32  33  35 0
 6-311+G(2d,p)
 ****
 37  38 0
 6-311+G(2d,p)
 ****
 1  2  3  4  5  17  18  19  20  21  22  23  24  25 0
 3-21G
 ****
 27  28  29  34  36  39  40  41  42  43  44  45  46 0
 3-21G
 ****


