%nproc=1
%NoSave
%Mem=1900MB
#P OB98/GEN NMR

erre ene a

0 1
  C     -183.102      78.645    -120.474
  O     -182.509      79.892    -120.781
  P     -183.295      80.962    -121.676
  C     -183.822      82.860    -120.027
  O     -182.989      82.425    -121.096
  C     -183.287      84.159    -119.429
  O     -182.122      83.906    -118.611
  C     -182.831      85.175    -120.463
  O     -183.921      85.785    -121.128
  C     -181.997      86.114    -119.600
  O     -182.837      87.038    -118.892
  C     -181.338      85.125    -118.614
  N     -179.945      84.860    -118.941
  C     -179.068      85.942    -118.814
  O     -179.493      87.060    -118.521
  N     -177.729      85.726    -119.031
  C     -177.323      84.573    -119.460
  N     -175.981      84.401    -119.599
  C     -178.241      83.455    -119.762
  C     -179.523      83.659    -119.461
  O     -184.740      80.666    -121.899
  O     -182.498      80.961    -123.067
  H     -183.139      80.858    -123.797
  H     -183.508      86.501    -118.424
  H     -177.859      82.536    -120.181
  H     -180.265      82.887    -119.628
  H     -181.392      85.517    -117.592
  H     -181.290      86.705    -120.189
  H     -182.182      84.686    -121.199
  H     -184.071      84.587    -118.789
  H     -175.382      85.182    -119.364
  H     -183.842      82.081    -119.260
  H     -175.548      83.481    -119.606
  H     -184.843      83.000    -120.400
  P     -184.032      85.544    -122.710
  C     -186.605      85.590    -123.000
  O     -185.376      86.256    -123.211
  O     -184.363      83.982    -122.824
  O     -182.802      85.896    -123.480
  H     -183.919      83.608    -123.607
  H     -187.415      86.321    -123.064
  H     -186.638      85.113    -122.016
  H     -186.749      84.835    -123.778
  H     -182.431      78.070    -119.871
  H     -183.310      78.116    -121.381
  H     -184.014      78.806    -119.938

 3  4  5  6  7  8  9  10  11  12  13  24  27  28  29  30  32 0
 6-311+G(2d,p)
 ****
 34  35 0
 6-311+G(2d,p)
 ****
 1  2  14  15  16  17  18  19  20  21  22  23  25  26 0
 3-21G
 ****
 31  33  36  37  38  39  40  41  42  43  44  45  46 0
 3-21G
 ****


