%nproc=1
%NoSave
%Mem=1900MB
#P OB98/GEN NMR

erre ene a

0 1
  C     -621.216      92.000    -479.351
  O     -619.910      91.458    -479.362
  H     -621.236      92.854    -478.667
  H     -621.928      91.250    -479.000
  H     -621.495      92.340    -480.352
  P     -619.612      90.303    -480.429
  C     -620.316      87.782    -480.616
  O     -620.130      88.923    -479.789
  C     -619.992      86.510    -479.833
  O     -620.921      86.319    -478.746
  C     -620.122      85.233    -480.648
  O     -619.093      85.090    -481.601
  C     -620.086      84.196    -479.537
  O     -618.744      83.961    -479.091
  C     -620.913      84.902    -478.432
  N     -622.262      84.366    -478.323
  C     -622.414      83.263    -477.471
  O     -621.444      82.811    -476.865
  N     -623.655      82.687    -477.358
  C     -624.662      83.178    -478.010
  N     -625.858      82.557    -477.862
  C     -624.548      84.355    -478.896
  C     -623.337      84.888    -479.009
  O     -618.023      90.155    -480.349
  O     -620.141      90.551    -481.802
  H     -618.810      83.417    -478.283
  H     -617.689      90.009    -479.447
  H     -625.418      84.735    -479.415
  H     -623.166      85.752    -479.640
  H     -620.424      84.791    -477.456
  H     -620.484      83.235    -479.861
  H     -621.108      85.185    -481.121
  H     -618.985      86.619    -479.411
  H     -625.892      81.743    -477.261
  H     -619.698      87.846    -481.519
  H     -626.704      82.831    -478.345
  H     -621.362      87.771    -480.936
  P     -619.336      84.238    -482.938
  C     -619.404      81.739    -483.551
  O     -619.145      82.697    -482.527
  O     -618.535      84.666    -484.121
  O     -620.920      84.336    -483.152
  H     -621.455      83.980    -482.423
  H     -619.246      80.753    -483.166
  H     -618.743      81.910    -484.375
  H     -620.417      81.835    -483.881

 6  7  8  9  10  11  12  13  14  15  16  26  30  31  32  33  35 0
 6-311+G(2d,p)
 ****
 37  38 0
 6-311+G(2d,p)
 ****
 1  2  3  4  5  17  18  19  20  21  22  23  24  25 0
 3-21G
 ****
 27  28  29  34  36  39  40  41  42  43  44  45  46 0
 3-21G
 ****


