%nproc=1
%NoSave
%Mem=1900MB
#P OB98/GEN NMR

erre ene a

0 1
  C      615.128      32.430    -104.451
  O      613.783      32.696    -104.037
  P      612.903      31.452    -103.516
  C      611.234      30.743    -105.407
  O      611.491      31.521    -104.248
  C      609.991      31.275    -106.160
  O      608.917      31.451    -105.193
  C      610.169      32.632    -106.820
  O      609.121      32.805    -107.800
  C      609.918      33.584    -105.668
  O      609.609      34.897    -106.120
  C      608.778      32.867    -104.896
  N      608.848      33.072    -103.426
  C      608.324      34.243    -102.899
  O      607.810      35.138    -103.579
  N      608.430      34.407    -101.547
  C      608.973      33.498    -100.669
  O      609.131      33.731     -99.475
  C      609.381      32.205    -101.247
  C      609.310      32.073    -102.577
  O      612.592      31.838    -101.989
  O      613.609      30.135    -103.619
  H      610.381      35.194    -106.661
  H      613.142      31.294    -101.391
  H      608.119      35.289    -101.155
  H      609.740      31.455    -100.579
  H      609.623      31.123    -103.023
  H      607.790      33.201    -105.217
  H      610.804      33.653    -105.044
  H      611.134      32.798    -107.289
  H      609.664      30.526    -106.883
  H      611.103      29.695    -105.144
  H      612.104      30.796    -106.079
  P      609.466      32.447    -109.331
  C      607.654      33.944    -110.350
  O      608.105      32.613    -110.156
  O      610.204      31.162    -109.546
  O      610.329      33.720    -109.809
  H      610.850      33.492    -110.608
  H      607.086      34.000    -111.290
  H      608.479      34.658    -110.398
  H      606.977      34.210    -109.530
  H      615.590      33.341    -104.770
  H      615.120      31.731    -105.261
  H      615.679      32.019    -103.631

 3  4  5  6  7  8  9  10  11  12  13  23  28  29  30  31  32 0
 6-311+G(2d,p)
 ****
 33  34 0
 6-311+G(2d,p)
 ****
 1  2  14  15  16  17  18  19  20  21  22  24  25  26  27 0
 3-21G
 ****
 35  36  37  38  39  40  41  42  43  44  45 0
 3-21G
 ****


