%nproc=1
%NoSave
%Mem=1900MB
#P OB98/GEN NMR

erre ene a

0 1
  C     -340.333     418.967    -147.873
  O     -339.381     419.610    -148.711
  P     -338.129     420.346    -148.030
  C     -339.179     422.776    -147.853
  O     -338.632     421.632    -147.227
  C     -339.209     423.938    -146.846
  O     -340.041     423.593    -145.719
  C     -337.831     424.300    -146.301
  O     -337.150     425.218    -147.137
  C     -338.176     424.868    -144.934
  O     -338.666     426.213    -145.060
  C     -339.315     423.912    -144.495
  N     -338.941     422.646    -143.820
  C     -338.634     422.641    -142.465
  O     -338.644     423.651    -141.748
  N     -338.315     421.430    -141.917
  C     -338.438     420.216    -142.530
  O     -338.190     419.149    -141.973
  C     -338.907     420.251    -143.914
  C     -339.121     421.445    -144.496
  O     -337.327     420.956    -149.269
  O     -337.275     419.449    -147.193
  H     -339.509     426.169    -145.546
  H     -336.446     420.541    -149.343
  H     -338.022     421.418    -140.955
  H     -339.060     419.309    -144.428
  H     -339.467     421.486    -145.522
  H     -340.010     424.431    -143.822
  H     -337.297     424.923    -144.302
  H     -337.234     423.390    -146.144
  H     -339.655     424.813    -147.346
  H     -340.185     422.571    -148.222
  H     -338.571     423.045    -148.724
  P     -336.008     424.690    -148.135
  C     -334.283     425.846    -146.624
  O     -334.664     424.642    -147.261
  O     -335.902     425.402    -149.443
  O     -336.360     423.139    -148.321
  H     -336.892     422.996    -149.144
  H     -333.450     425.632    -145.945
  H     -335.120     426.253    -146.047
  H     -333.961     426.574    -147.368
  H     -341.100     418.528    -148.476
  H     -340.768     419.686    -147.211
  H     -339.847     418.204    -147.302

 3  4  5  6  7  8  9  10  11  12  13  23  28  29  30  31  32 0
 6-311+G(2d,p)
 ****
 33  34 0
 6-311+G(2d,p)
 ****
 1  2  14  15  16  17  18  19  20  21  22  24  25  26  27 0
 3-21G
 ****
 35  36  37  38  39  40  41  42  43  44  45 0
 3-21G
 ****


