%nproc=1
%NoSave
%Mem=1900MB
#P OB98/GEN NMR

erre ene a

0 1
  C      486.650    -812.239      32.835
  O      485.578    -813.070      33.270
  P      485.927    -814.405      34.101
  C      485.143    -813.898      36.576
  O      486.187    -814.047      35.625
  C      485.747    -813.813      37.983
  O      486.436    -815.056      38.314
  C      486.765    -812.693      38.148
  O      486.150    -811.466      38.487
  C      487.676    -813.235      39.232
  O      487.056    -813.086      40.523
  C      487.751    -814.726      38.842
  N      488.780    -815.141      37.844
  C      490.131    -814.984      38.125
  O      490.560    -814.512      39.184
  N      491.013    -815.406      37.178
  C      490.695    -816.101      36.048
  O      491.528    -816.514      35.238
  C      489.274    -816.387      35.851
  C      488.389    -815.880      36.734
  O      487.387    -814.814      33.555
  O      484.944    -815.512      33.934
  H      486.266    -813.652      40.535
  H      487.350    -815.666      33.082
  H      491.990    -815.237      37.332
  H      488.966    -816.979      34.995
  H      487.328    -816.078      36.604
  H      487.907    -815.359      39.721
  H      488.613    -812.687      39.281
  H      487.362    -812.590      37.222
  H      484.937    -813.694      38.705
  H      484.446    -814.735      36.519
  H      484.575    -812.993      36.363
  P      486.789    -810.078      38.018
  C      484.770    -809.737      36.474
  O      486.173    -809.794      36.549
  O      488.293    -809.984      38.102
  O      486.046    -808.981      38.909
  H      486.604    -808.756      39.693
  H      484.475    -809.383      35.474
  H      484.363    -809.046      37.218
  H      484.357    -810.753      36.623
  H      486.256    -811.399      32.301
  H      487.297    -812.799      32.192
  H      487.202    -811.895      33.685

 3  4  5  6  7  8  9  10  11  12  13  23  28  29  30  31  32 0
 6-311+G(2d,p)
 ****
 33  34 0
 6-311+G(2d,p)
 ****
 1  2  14  15  16  17  18  19  20  21  22  24  25  26  27 0
 3-21G
 ****
 35  36  37  38  39  40  41  42  43  44  45 0
 3-21G
 ****


