%nproc=1
%NoSave
%Mem=1900MB
#P OB98/GEN NMR

erre ene a

0 1
  C     -464.600     -99.612    -258.942
  O     -464.152     -99.298    -260.265
  P     -462.660     -99.607    -260.751
  C     -463.187    -100.920    -262.907
  O     -462.656    -100.981    -261.582
  C     -464.659    -101.341    -262.951
  O     -465.476    -100.397    -262.234
  C     -465.246    -101.435    -264.354
  O     -464.858    -102.640    -264.981
  C     -466.740    -101.317    -264.054
  O     -467.270    -102.589    -263.635
  C     -466.758    -100.318    -262.893
  N     -470.393     -96.780    -263.521
  C     -470.436     -98.038    -263.040
  N     -469.422     -98.921    -262.914
  C     -468.265     -98.380    -263.312
  C     -468.065     -97.099    -263.827
  C     -469.205     -96.282    -263.928
  N     -469.155     -94.999    -264.431
  N     -466.740     -96.909    -264.156
  C     -466.142     -98.039    -263.828
  N     -467.022     -98.951    -263.316
  O     -461.631     -99.553    -259.669
  O     -462.357     -98.500    -261.869
  H     -466.758    -102.873    -262.854
  H     -461.396     -98.322    -261.905
  H     -471.413     -98.384    -262.728
  H     -465.088     -98.235    -263.937
  H     -467.513    -100.580    -262.146
  H     -467.321    -100.998    -264.926
  H     -464.931    -100.573    -264.951
  H     -464.747    -102.308    -262.431
  H     -462.594    -101.586    -263.545
  H     -470.021     -94.487    -264.502
  H     -468.278     -94.638    -264.779
  H     -463.074     -99.896    -263.282
  P     -464.360    -102.621    -266.511
  C     -462.016    -103.599    -266.165
  O     -462.769    -102.445    -266.484
  O     -465.091    -101.688    -267.416
  O     -464.537    -104.144    -266.979
  H     -464.718    -104.169    -267.936
  H     -462.013    -103.750    -265.078
  H     -460.984    -103.455    -266.501
  H     -462.427    -104.489    -266.651
  H     -465.624     -99.322    -258.834
  H     -464.003     -99.084    -258.228
  H     -464.508    -100.665    -258.775

 3  4  5  6  7  8  9  10  11  12  22  25  29  30  31  32 0
 6-311+G(2d,p)
 ****
 33  36  37 0
 6-311+G(2d,p)
 ****
 1  2  13  14  15  16  17  18  19  20  21  23  24  26 0
 3-21G
 ****
 27  28  34  35  38  39  40  41  42  43  44  45  46  47  48 0
 3-21G
 ****


