%nproc=1
%NoSave
%Mem=1900MB
#P OB98/GEN NMR

erre ene a

0 1
  C      -34.920    -109.415      33.993
  O      -34.248    -110.561      34.480
  H      -34.487    -109.142      33.026
  H      -34.796    -108.573      34.681
  H      -35.984    -109.630      33.852
  P      -34.644    -111.120      35.927
  C      -32.431    -110.296      36.991
  O      -33.853    -110.217      36.991
  C      -31.882    -110.114      38.407
  O      -32.097    -108.762      38.858
  C      -32.542    -111.011      39.448
  O      -32.076    -112.340      39.332
  C      -32.145    -110.288      40.728
  O      -30.786    -110.584      41.085
  C      -32.285    -108.807      40.291
  N      -33.562    -108.209      40.666
  C      -33.543    -107.361      41.781
  O      -32.495    -107.170      42.396
  N      -34.720    -106.774      42.177
  C      -35.808    -106.973      41.498
  N      -36.940    -106.357      41.938
  C      -35.863    -107.829      40.297
  C      -34.720    -108.418      39.949
  O      -34.485    -112.597      36.133
  O      -36.163    -110.657      36.118
  H      -30.572    -109.997      41.839
  H      -36.776    -111.367      35.840
  H      -36.790    -107.959      39.755
  H      -34.676    -109.065      39.076
  H      -31.483    -108.200      40.735
  H      -32.770    -110.572      41.574
  H      -33.634    -110.966      39.352
  H      -30.798    -110.282      38.371
  H      -36.846    -105.762      42.756
  H      -32.064    -109.493      36.339
  H      -37.794    -106.310      41.404
  H      -32.096    -111.255      36.578
  P      -33.070    -113.593      39.464
  C      -32.485    -114.097      41.919
  O      -33.487    -113.657      41.012
  O      -32.554    -114.875      38.899
  O      -34.416    -113.082      38.761
  H      -34.325    -113.110      37.779
  H      -32.879    -114.097      42.914
  H      -31.644    -113.437      41.869
  H      -32.177    -115.088      41.657

 6  7  8  9  10  11  12  13  14  15  16  26  30  31  32  33  35 0
 6-311+G(2d,p)
 ****
 37  38 0
 6-311+G(2d,p)
 ****
 1  2  3  4  5  17  18  19  20  21  22  23  24  25 0
 3-21G
 ****
 27  28  29  34  36  39  40  41  42  43  44  45  46 0
 3-21G
 ****


