%nproc=1
%NoSave
%Mem=1900MB
#P OB98/GEN NMR

erre ene a

0 1
  C      607.596    -300.170     177.098
  O      608.737    -300.493     176.332
  H      607.159    -301.096     177.478
  H      606.856    -299.670     176.464
  H      607.851    -299.529     177.944
  P      609.734    -299.316     175.895
  C      610.041    -300.343     173.548
  O      610.680    -299.925     174.748
  C      610.900    -301.372     172.801
  O      610.805    -302.654     173.489
  C      610.477    -301.595     171.340
  O      611.658    -301.936     170.598
  C      609.570    -302.805     171.471
  O      609.373    -303.442     170.220
  C      610.321    -303.614     172.531
  N      609.476    -304.636     173.157
  C      609.422    -305.871     172.517
  O      610.015    -306.117     171.462
  N      608.631    -306.816     173.107
  C      607.849    -306.629     174.214
  O      607.128    -307.506     174.683
  C      607.912    -305.287     174.819
  C      608.716    -304.366     174.275
  O      610.463    -298.639     177.006
  O      608.809    -298.296     175.077
  H      608.973    -302.812     169.582
  H      609.144    -297.382     175.177
  H      608.586    -307.721     172.663
  H      607.295    -305.099     175.688
  H      608.783    -303.374     174.700
  H      611.194    -304.124     172.091
  H      608.579    -302.513     171.846
  H      609.977    -300.733     170.892
  H      611.952    -301.060     172.857
  H      609.892    -299.458     172.918
  H      609.065    -300.782     173.781
  P      612.031    -301.209     169.217
  C      611.792    -303.253     167.647
  O      612.683    -302.289     168.220
  O      612.838    -299.959     169.376
  O      610.620    -300.884     168.532
  H      610.702    -300.093     167.960
  H      612.342    -303.911     167.007
  H      611.039    -302.749     167.078
  H      611.329    -303.820     168.428

 6  7  8  9  10  11  12  13  14  15  16  26  31  32  33  34  35 0
 6-311+G(2d,p)
 ****
 36  37 0
 6-311+G(2d,p)
 ****
 1  2  3  4  5  17  18  19  20  21  22  23  24  25 0
 3-21G
 ****
 27  28  29  30  38  39  40  41  42  43  44  45 0
 3-21G
 ****


