%nproc=1
%NoSave
%Mem=1900MB
#P OB98/GEN NMR

erre ene a

0 1
  C       75.140    -393.543     159.727
  O       74.236    -392.675     160.391
  H       75.954    -393.786     160.414
  H       75.559    -393.050     158.849
  H       74.638    -394.470     159.437
  P       72.863    -392.284     159.659
  C       71.467    -392.295     161.833
  O       71.958    -391.514     160.740
  C       70.973    -391.361     162.938
  O       72.093    -390.789     163.656
  C       70.158    -390.172     162.434
  O       68.843    -390.572     162.075
  C       70.232    -389.238     163.635
  O       69.275    -389.614     164.640
  C       71.680    -389.473     164.123
  N       72.611    -388.451     163.678
  C       72.814    -387.367     164.553
  O       72.218    -387.252     165.629
  N       73.691    -386.414     164.128
  C       74.295    -386.372     162.899
  O       75.005    -385.440     162.525
  C       74.031    -387.504     162.014
  C       73.216    -388.487     162.438
  O       72.177    -393.387     158.935
  O       73.296    -391.107     158.660
  H       69.597    -389.230     165.479
  H       73.325    -391.448     157.745
  H       73.834    -385.622     164.734
  H       74.507    -387.516     161.038
  H       73.008    -389.326     161.794
  H       71.706    -389.518     165.221
  H       70.036    -388.208     163.360
  H       70.669    -389.711     161.583
  H       70.379    -391.960     163.653
  H       72.291    -392.915     162.221
  H       70.662    -392.936     161.478
  P       68.499    -390.890     160.538
  C       67.188    -393.020     161.163
  O       67.145    -391.748     160.513
  O       69.631    -391.457     159.738
  O       68.034    -389.468     159.960
  H       68.636    -389.209     159.232
  H       66.233    -393.495     161.080
  H       67.431    -392.885     162.196
  H       67.933    -393.633     160.699

 6  7  8  9  10  11  12  13  14  15  16  26  31  32  33  34  35 0
 6-311+G(2d,p)
 ****
 36  37 0
 6-311+G(2d,p)
 ****
 1  2  3  4  5  17  18  19  20  21  22  23  24  25 0
 3-21G
 ****
 27  28  29  30  38  39  40  41  42  43  44  45 0
 3-21G
 ****


