%nproc=1
%NoSave
%Mem=1900MB
#P OB98/GEN NMR

erre ene a

0 1
  C       84.790    -156.999    -284.636
  O       84.333    -155.663    -284.506
  H       85.229    -157.126    -285.628
  H       83.947    -157.685    -284.532
  H       85.551    -157.223    -283.880
  P       83.961    -155.165    -283.027
  C       81.677    -156.293    -283.543
  O       82.356    -155.210    -282.922
  C       80.196    -155.960    -283.717
  O       79.544    -156.963    -284.532
  C       79.411    -155.891    -282.409
  O       79.544    -154.617    -281.786
  C       77.990    -156.093    -282.924
  O       77.507    -154.870    -283.521
  C       78.197    -157.158    -284.012
  N       74.985    -160.696    -282.294
  C       74.760    -159.363    -282.601
  N       73.496    -158.913    -282.423
  N       75.686    -158.547    -283.048
  C       76.906    -159.139    -283.157
  C       77.254    -160.441    -282.873
  C       76.218    -161.334    -282.401
  O       76.368    -162.523    -282.128
  N       78.582    -160.665    -283.108
  C       79.045    -159.496    -283.514
  N       78.065    -158.530    -283.552
  O       84.292    -153.598    -283.088
  O       84.702    -155.836    -281.919
  H       78.165    -154.596    -284.187
  H       85.144    -153.439    -282.638
  H       74.241    -161.277    -281.943
  H       80.071    -159.299    -283.791
  H       77.503    -157.034    -284.850
  H       77.290    -156.361    -282.131
  H       72.742    -159.480    -282.064
  H       79.672    -156.710    -281.723
  H       73.309    -157.940    -282.643
  H       80.128    -155.010    -284.262
  H       81.778    -157.181    -282.912
  H       82.134    -156.487    -284.516
  P       80.116    -154.571    -280.279
  C       77.967    -155.728    -279.409
  O       78.844    -154.625    -279.295
  O       80.630    -153.061    -280.145
  O       81.203    -155.546    -279.979
  H       81.605    -153.049    -280.086
  H       77.174    -155.629    -278.697
  H       78.506    -156.633    -279.219
  H       77.557    -155.757    -280.397

 6  7  8  9  10  11  12  13  14  15  26  29  33  34 0
 6-311+G(2d,p)
 ****
 36  38  39  40  41 0
 6-311+G(2d,p)
 ****
 1  2  3  4  5  16  17  18  19  20  21  22  23  24  25 0
 3-21G
 ****
 27  28  30  31  32  35  37  42  43  44  45  46  47 0
 3-21G
 ****
 48  49 0
 3-21G
 ****


