%nproc=1
%NoSave
%Mem=1900MB
#P OB98/GEN NMR

erre ene a

0 1
  C      579.851     587.746     470.884
  O      579.630     589.137     470.618
  P      578.247     589.893     470.960
  C      577.650     590.674     468.568
  O      578.040     591.066     469.873
  C      577.949     591.794     467.562
  O      579.343     591.786     467.198
  C      577.208     591.689     466.231
  O      575.834     592.012     466.337
  C      578.013     592.656     465.365
  O      577.578     594.010     465.540
  C      579.447     592.492     465.932
  N      580.359     591.796     465.024
  C      580.731     592.502     463.868
  O      580.245     593.615     463.623
  N      581.623     591.924     463.020
  C      582.031     590.705     463.240
  N      582.947     590.193     462.369
  C      581.560     589.884     464.359
  C      580.725     590.497     465.209
  O      578.151     590.365     472.380
  O      577.084     588.837     470.621
  H      576.302     589.034     471.167
  H      577.786     594.253     466.466
  H      581.884     588.859     464.487
  H      580.325     589.957     466.074
  H      579.863     593.479     466.188
  H      577.937     592.422     464.300
  H      577.314     590.668     465.836
  H      577.717     592.753     468.039
  H      583.264     590.783     461.608
  H      576.576     590.470     468.568
  H      583.344     589.268     462.457
  H      578.172     589.754     468.293
  P      574.782     590.835     466.086
  C      573.659     591.118     463.757
  O      573.622     591.395     465.153
  O      574.068     590.639     467.519
  O      575.391     589.549     465.611
  H      573.919     589.686     467.678
  H      572.643     591.123     463.362
  H      574.120     590.139     463.561
  H      574.234     591.896     463.257
  H      580.838     587.476     470.572
  H      579.134     587.162     470.346
  H      579.746     587.562     471.933

 3  4  5  6  7  8  9  10  11  12  13  24  27  28  29  30  32 0
 6-311+G(2d,p)
 ****
 34  35 0
 6-311+G(2d,p)
 ****
 1  2  14  15  16  17  18  19  20  21  22  23  25  26 0
 3-21G
 ****
 31  33  36  37  38  39  40  41  42  43  44  45  46 0
 3-21G
 ****


