%nproc=1
%NoSave
%Mem=1900MB
#P OB98/GEN NMR

erre ene a

0 1
  C     -193.637    -200.455    -106.904
  O     -194.713    -201.327    -107.194
  H     -193.276    -200.666    -105.894
  H     -193.990    -199.421    -106.943
  H     -192.816    -200.597    -107.612
  P     -195.141    -201.482    -108.732
  C     -196.655    -200.155    -110.373
  O     -196.134    -200.256    -109.055
  C     -197.112    -198.721    -110.655
  O     -198.130    -198.356    -109.669
  C     -195.988    -197.674    -110.577
  O     -196.216    -196.671    -111.571
  C     -196.210    -197.042    -109.211
  O     -195.659    -195.733    -109.120
  C     -197.734    -197.078    -109.128
  N     -199.184    -193.584    -105.821
  C     -198.961    -193.497    -107.181
  N     -199.083    -192.277    -107.746
  N     -198.638    -194.522    -107.927
  C     -198.570    -195.689    -107.241
  C     -198.761    -195.910    -105.899
  C     -199.100    -194.764    -105.077
  O     -199.290    -194.776    -103.865
  N     -198.537    -197.226    -105.580
  C     -198.192    -197.799    -106.726
  N     -198.197    -196.902    -107.761
  O     -196.113    -202.757    -108.697
  O     -194.015    -201.663    -109.694
  H     -195.587    -195.495    -108.173
  H     -195.608    -203.564    -108.919
  H     -199.411    -192.764    -105.288
  H     -197.914    -198.832    -106.848
  H     -198.209    -196.290    -109.727
  H     -195.760    -197.665    -108.429
  H     -199.354    -191.447    -107.241
  H     -194.980    -198.090    -110.693
  H     -198.961    -192.202    -108.752
  H     -197.598    -198.695    -111.639
  H     -197.510    -200.831    -110.476
  H     -195.882    -200.454    -111.090
  P     -195.068    -196.422    -112.667
  C     -192.919    -194.964    -112.889
  O     -193.995    -195.389    -112.065
  O     -195.819    -195.557    -113.786
  O     -194.493    -197.681    -113.238
  H     -195.472    -195.786    -114.669
  H     -192.300    -194.283    -112.344
  H     -193.307    -194.475    -113.758
  H     -192.340    -195.813    -113.186

 6  7  8  9  10  11  12  13  14  15  26  29  33  34 0
 6-311+G(2d,p)
 ****
 36  38  39  40  41 0
 6-311+G(2d,p)
 ****
 1  2  3  4  5  16  17  18  19  20  21  22  23  24  25 0
 3-21G
 ****
 27  28  30  31  32  35  37  42  43  44  45  46  47 0
 3-21G
 ****
 48  49 0
 3-21G
 ****


