%nproc=1
%NoSave
%Mem=1900MB
#P OB98/GEN NMR

erre ene a

0 1
  C      -69.415     119.142     130.360
  O      -69.668     118.091     129.444
  P      -69.448     116.585     129.956
  C      -67.916     115.984     127.942
  O      -68.042     116.103     129.353
  C      -66.838     114.961     127.594
  O      -65.567     115.347     128.153
  C      -67.107     113.563     128.138
  O      -68.012     112.833     127.328
  C      -65.717     112.951     128.066
  O      -65.438     112.521     126.721
  C      -64.823     114.139     128.444
  N      -62.655     111.409     132.110
  C      -62.703     111.179     130.749
  N      -62.146     110.029     130.313
  N      -63.247     112.003     129.892
  C      -63.772     113.110     130.473
  C      -63.782     113.449     131.808
  C      -63.189     112.522     132.745
  O      -63.161     112.644     133.965
  N      -64.399     114.654     132.012
  C      -64.761     115.048     130.807
  N      -64.442     114.125     129.845
  O      -70.517     115.747     129.110
  O      -69.619     116.396     131.425
  H      -64.498     112.253     126.703
  H      -70.663     114.876     129.526
  H      -62.229     110.740     132.730
  H      -65.268     115.978     130.586
  H      -63.907     114.167     127.845
  H      -65.605     112.074     128.710
  H      -61.768     109.324     130.929
  H      -67.435     113.599     129.184
  H      -62.223     109.804     129.329
  H      -66.735     114.935     126.501
  H      -67.648     116.955     127.521
  H      -68.878     115.679     127.518
  P      -69.063     111.888     128.091
  C      -67.251     110.086     128.560
  O      -68.186     111.002     129.096
  O      -69.509     110.854     126.954
  O      -70.223     112.611     128.688
  H      -70.402     110.508     127.140
  H      -66.570     109.774     129.356
  H      -66.665     110.546     127.760
  H      -67.772     109.206     128.175
  H      -69.602     120.082     129.885
  H      -68.394     119.100     130.678
  H      -70.058     119.038     131.209

 3  4  5  6  7  8  9  10  11  12  23  26  30  31 0
 6-311+G(2d,p)
 ****
 33  35  36  37  38 0
 6-311+G(2d,p)
 ****
 1  2  13  14  15  16  17  18  19  20  21  22  24  25 0
 3-21G
 ****
 27  28  29  32  34  39  40  41  42  43  44  45  46  47  48  49 0
 3-21G
 ****


