%nproc=1
%NoSave
%Mem=1900MB
#P OB98/GEN NMR

erre ene a

0 1
  C      -19.325    -140.970    -310.519
  O      -20.604    -140.836    -309.902
  P      -21.844    -141.661    -310.483
  C      -22.854    -139.395    -311.174
  O      -23.104    -140.681    -310.621
  C      -23.663    -138.316    -310.439
  O      -25.064    -138.702    -310.345
  C      -23.164    -138.084    -309.001
  O      -23.340    -136.712    -308.625
  C      -24.125    -138.917    -308.171
  O      -24.155    -138.486    -306.812
  C      -25.429    -138.707    -308.944
  N      -29.033    -140.324    -305.688
  C      -28.273    -139.205    -305.704
  N      -27.349    -138.833    -306.615
  C      -27.256    -139.746    -307.599
  C      -27.974    -140.925    -307.726
  C      -28.895    -141.214    -306.701
  N      -29.653    -142.360    -306.679
  N      -27.602    -141.613    -308.869
  C      -26.643    -140.871    -309.399
  N      -26.427    -139.724    -308.688
  O      -22.130    -142.963    -309.807
  O      -21.423    -141.897    -312.015
  H      -24.824    -139.017    -306.347
  H      -21.651    -142.812    -312.279
  H      -28.423    -138.529    -304.867
  H      -26.074    -141.130    -310.277
  H      -25.880    -137.730    -308.723
  H      -23.818    -139.966    -308.192
  H      -22.120    -138.370    -308.833
  H      -23.627    -137.388    -311.012
  H      -23.112    -139.392    -312.236
  H      -30.199    -142.539    -305.842
  H      -29.448    -143.097    -307.342
  H      -21.779    -139.191    -311.121
  P      -21.996    -135.824    -308.547
  C      -22.287    -135.151    -306.036
  O      -22.251    -134.747    -307.383
  O      -21.570    -135.274    -309.870
  O      -20.952    -136.860    -307.913
  H      -21.262    -137.306    -307.109
  H      -22.341    -134.268    -305.402
  H      -21.389    -135.713    -305.773
  H      -23.174    -135.766    -305.850
  H      -18.616    -140.353    -310.008
  H      -19.389    -140.666    -311.543
  H      -19.010    -141.991    -310.469

 3  4  5  6  7  8  9  10  11  12  22  25  29  30  31  32 0
 6-311+G(2d,p)
 ****
 33  36  37 0
 6-311+G(2d,p)
 ****
 1  2  13  14  15  16  17  18  19  20  21  23  24  26 0
 3-21G
 ****
 27  28  34  35  38  39  40  41  42  43  44  45  46  47  48 0
 3-21G
 ****


