%nproc=1
%NoSave
%Mem=1900MB
#P OB98/GEN NMR

erre ene a

0 1
  C     -160.139     245.809     129.314
  O     -160.976     246.716     128.629
  H     -159.243     246.342     129.641
  H     -159.840     244.992     128.651
  H     -160.646     245.403     130.195
  P     -162.429     246.225     128.155
  C     -161.543     246.104     125.739
  O     -162.223     245.422     126.784
  C     -162.201     245.789     124.397
  O     -161.735     246.708     123.382
  C     -161.889     244.394     123.871
  O     -162.635     243.412     124.568
  C     -162.254     244.561     122.403
  O     -163.675     244.480     122.210
  C     -161.750     245.998     122.122
  N     -160.428     246.021     121.486
  C     -160.271     245.202     120.369
  O     -161.168     244.491     119.926
  N     -159.021     245.199     119.808
  C     -157.923     245.850     120.298
  O     -156.781     245.645     119.895
  C     -158.167     246.752     121.429
  C     -159.386     246.783     121.975
  O     -163.489     247.276     128.122
  O     -162.790     245.062     129.199
  H     -163.403     245.415     129.873
  H     -163.841     244.676     121.271
  H     -158.882     244.576     119.029
  H     -157.336     247.334     121.810
  H     -159.581     247.423     122.832
  H     -162.452     246.528     121.468
  H     -161.803     243.795     121.770
  H     -160.814     244.192     123.945
  H     -163.285     245.930     124.508
  H     -160.501     245.763     125.722
  H     -161.564     247.181     125.939
  P     -161.908     242.303     125.464
  C     -160.762     241.097     123.514
  O     -160.573     241.849     124.703
  O     -162.783     241.175     125.904
  O     -161.347     243.115     126.723
  H     -161.655     242.687     127.543
  H     -159.810     240.850     123.093
  H     -161.323     241.676     122.811
  H     -161.295     240.198     123.742

 6  7  8  9  10  11  12  13  14  15  16  27  31  32  33  34  35 0
 6-311+G(2d,p)
 ****
 36  37 0
 6-311+G(2d,p)
 ****
 1  2  3  4  5  17  18  19  20  21  22  23  24  25 0
 3-21G
 ****
 26  28  29  30  38  39  40  41  42  43  44  45 0
 3-21G
 ****


