%nproc=1
%NoSave
%Mem=1900MB
#P OB98/GEN NMR

erre ene a

0 1
  C     -745.471    -892.180    -651.650
  O     -746.641    -892.460    -652.401
  P     -747.485    -891.300    -653.147
  C     -747.594    -892.260    -655.547
  O     -747.043    -891.240    -654.685
  C     -746.577    -893.400    -655.780
  O     -746.225    -894.060    -654.555
  C     -747.072    -894.520    -656.696
  O     -747.069    -894.100    -658.057
  C     -746.091    -895.630    -656.364
  O     -744.847    -895.470    -657.079
  C     -745.864    -895.410    -654.847
  N     -746.628    -896.340    -654.034
  C     -746.049    -897.600    -653.798
  O     -744.962    -897.890    -654.330
  N     -746.688    -898.490    -653.000
  C     -747.868    -898.200    -652.523
  N     -748.474    -899.140    -651.733
  C     -748.546    -896.920    -652.792
  C     -747.883    -896.040    -653.554
  O     -747.436    -889.980    -652.466
  O     -748.991    -891.860    -653.203
  H     -745.044    -895.540    -658.018
  H     -749.606    -891.110    -653.178
  H     -749.558    -896.720    -652.411
  H     -748.319    -895.090    -653.813
  H     -744.796    -895.510    -654.600
  H     -746.477    -896.600    -656.606
  H     -748.082    -894.800    -656.401
  H     -745.663    -892.950    -656.203
  H     -747.958    -900.000    -651.551
  H     -747.862    -891.810    -656.522
  H     -749.372    -899.000    -651.293
  H     -748.497    -892.670    -655.079
  P     -748.444    -893.740    -658.805
  C     -747.677    -891.680    -660.106
  O     -748.468    -892.160    -659.054
  O     -749.676    -894.310    -658.193
  O     -748.231    -894.320    -660.284
  H     -749.092    -894.600    -660.642
  H     -748.056    -890.700    -660.433
  H     -747.680    -892.360    -660.979
  H     -746.624    -891.560    -659.777
  H     -745.079    -893.091    -651.248
  H     -745.712    -891.511    -650.850
  H     -744.739    -891.727    -652.286

 3  4  5  6  7  8  9  10  11  12  13  23  27  28  29  30  32 0
 6-311+G(2d,p)
 ****
 34  35 0
 6-311+G(2d,p)
 ****
 1  2  14  15  16  17  18  19  20  21  22  24  25  26 0
 3-21G
 ****
 31  33  36  37  38  39  40  41  42  43  44  45  46 0
 3-21G
 ****


