%nproc=1
%NoSave
%Mem=1900MB
#P OB98/GEN NMR

erre ene a

0 1
  C     -287.003    -899.140     331.664
  O     -288.089    -898.850     332.519
  H     -286.127    -899.390     332.274
  H     -286.764    -898.270     331.043
  H     -287.238    -900.000     331.026
  P     -289.517    -898.630     331.827
  C     -290.222    -896.750     333.522
  O     -289.984    -897.130     332.178
  C     -290.907    -895.370     333.569
  O     -289.984    -894.330     333.257
  C     -292.013    -895.210     332.521
  O     -293.166    -895.970     332.808
  C     -292.224    -893.710     332.593
  O     -293.031    -893.350     333.725
  C     -290.772    -893.190     332.779
  N     -290.222    -892.640     331.541
  C     -290.727    -891.390     331.159
  O     -291.582    -890.820     331.856
  N     -290.278    -890.830     329.981
  C     -289.384    -891.460     329.271
  N     -288.986    -890.850     328.123
  C     -288.811    -892.750     329.652
  C     -289.264    -893.290     330.794
  O     -290.488    -899.520     332.741
  O     -289.574    -898.940     330.367
  H     -292.522    -893.570     334.525
  H     -290.432    -899.320     333.695
  H     -288.058    -893.230     329.027
  H     -288.894    -894.240     331.140
  H     -290.735    -892.420     333.545
  H     -292.739    -893.320     331.707
  H     -291.626    -895.450     331.522
  H     -291.295    -895.220     334.586
  H     -289.428    -889.970     327.880
  H     -289.293    -896.730     334.096
  H     -288.325    -891.240     327.463
  H     -290.871    -897.510     333.984
  P     -294.237    -896.320     331.664
  C     -295.802    -897.400     333.415
  O     -295.658    -896.400     332.411
  O     -293.891    -897.490     330.819
  O     -294.352    -894.930     330.863
  H     -294.645    -894.170     331.389
  H     -296.786    -897.348     333.832
  H     -295.079    -897.237     334.187
  H     -295.649    -898.366     332.981

 6  7  8  9  10  11  12  13  14  15  16  26  30  31  32  33  35 0
 6-311+G(2d,p)
 ****
 37  38 0
 6-311+G(2d,p)
 ****
 1  2  3  4  5  17  18  19  20  21  22  23  24  25 0
 3-21G
 ****
 27  28  29  34  36  39  40  41  42  43  44  45  46 0
 3-21G
 ****


