%nproc=1
%NoSave
%Mem=1900MB
#P OB98/GEN NMR

erre ene a

0 1
  C      -72.505     232.182     280.253
  O      -72.317     233.509     280.710
  H      -72.912     232.214     279.241
  H      -73.211     231.656     280.902
  H      -71.548     231.649     280.237
  P      -71.702     233.681     282.182
  C      -74.165     234.077     282.934
  O      -72.915     233.449     283.208
  C      -75.298     233.083     283.176
  O      -75.064     231.878     282.410
  C      -75.428     232.630     284.622
  O      -76.076     233.593     285.434
  C      -76.219     231.343     284.457
  O      -77.629     231.603     284.350
  C      -75.681     230.789     283.134
  N      -75.057     226.071     284.989
  C      -76.157     226.842     284.844
  N      -76.238     228.090     284.326
  C      -75.033     228.512     283.909
  C      -73.828     227.836     283.990
  C      -73.868     226.547     284.557
  N      -72.747     225.770     284.730
  N      -72.799     228.607     283.494
  C      -73.369     229.734     283.116
  N      -74.721     229.719     283.344
  O      -71.424     235.254     282.273
  O      -70.474     232.880     282.454
  H      -78.056     230.734     284.215
  H      -70.477     235.426     282.109
  H      -77.089     226.412     285.197
  H      -72.858     230.583     282.681
  H      -76.480     230.385     282.496
  H      -76.067     230.680     285.310
  H      -74.438     232.386     285.031
  H      -76.238     233.536     282.822
  H      -74.181     234.405     281.892
  H      -74.270     234.950     283.585
  H      -72.837     224.888     285.209
  H      -71.837     226.162     284.518
  P      -75.181     234.390     286.500
  C      -76.893     233.648     288.325
  O      -75.528     233.804     287.950
  O      -75.829     235.856     286.524
  O      -73.726     234.434     286.180
  H      -75.130     236.528     286.648
  H      -76.947     233.248     289.316
  H      -77.376     232.979     287.644
  H      -77.382     234.600     288.297

 6  7  8  9  10  11  12  13  14  15  25  28  32  33  34  35 0
 6-311+G(2d,p)
 ****
 36  37  40 0
 6-311+G(2d,p)
 ****
 1  2  3  4  5  16  17  18  19  20  21  22  23  24 0
 3-21G
 ****
 26  27  29  30  31  38  39 41  42  43  44  45  46  47  48 0
 3-21G
 ****


