%nproc=1
%NoSave
%Mem=1900MB
#P OB98/GEN NMR

erre ene a

0 1
  C      -94.766     223.639     -81.643
  O      -95.385     224.789     -82.181
  H      -93.681     223.761     -81.701
  H      -95.050     222.754     -82.222
  H      -95.051     223.509     -80.596
  P      -96.990     224.810     -82.194
  C      -97.361     224.514     -84.748
  O      -97.438     223.920     -83.459
  C      -98.106     223.663     -85.774
  O      -98.150     224.378     -87.042
  C      -97.459     222.295     -86.039
  O      -98.494     221.323     -86.228
  C      -96.735     222.509     -87.353
  O      -96.505     221.285     -88.048
  C      -97.697     223.465     -88.054
  N      -96.267     223.021     -92.866
  C      -96.938     222.131     -92.044
  N      -97.282     220.943     -92.580
  N      -97.247     222.394     -90.797
  C      -96.862     223.629     -90.399
  C      -96.187     224.595     -91.109
  C      -95.835     224.286     -92.481
  O      -95.221     225.021     -93.249
  N      -95.955     225.707     -90.337
  C      -96.492     225.420     -89.164
  N      -97.061     224.173     -89.155
  O      -97.339     226.303     -82.656
  O      -97.648     224.450     -80.908
  H      -95.892     221.475     -88.791
  H      -98.189     226.599     -82.271
  H      -96.044     222.764     -93.812
  H      -96.492     226.068     -88.296
  H      -98.570     222.946     -88.474
  H      -95.763     222.992     -87.177
  H      -97.107     220.684     -93.544
  H      -96.790     221.970     -85.240
  H      -97.784     220.279     -92.000
  H      -99.147     223.547     -85.442
  H      -96.305     224.599     -85.037
  H      -97.800     225.519     -84.704
  P      -99.088     220.603     -84.922
  C      -97.433     218.619     -84.631
  O      -97.883     219.877     -84.141
  O      -99.927     219.382     -85.536
  O      -99.953     221.489     -84.086
  H     -100.880     219.557     -85.440
  H      -96.634     218.261     -84.015
  H      -97.085     218.732     -85.637
  H      -98.241     217.918     -84.609

 6  7  8  9  10  11  12  13  14  15  26  29  33  34 0
 6-311+G(2d,p)
 ****
 36  38  39  40  41 0
 6-311+G(2d,p)
 ****
 1  2  3  4  5  16  17  18  19  20  21  22  23  24  25 0
 3-21G
 ****
 27  28  30  31  32  35  37  42  43  44  45  46  47 0
 3-21G
 ****
 48  49 0
 3-21G
 ****


