%nproc=1
%NoSave
%Mem=1900MB
#P OB98/GEN NMR

erre ene a

0 1
  C      -11.953     295.986     155.269
  O      -12.526     297.000     154.463
  H      -10.890     295.910     155.023
  H      -12.429     295.027     155.057
  H      -12.052     296.228     156.330
  P      -14.050     297.422     154.719
  C      -13.594     298.888     156.797
  O      -14.035     298.858     155.442
  C      -12.940     300.238     157.121
  O      -11.758     300.395     156.294
  C      -13.854     301.444     156.868
  O      -13.625     302.430     157.877
  C      -13.384     301.965     155.522
  O      -13.655     303.357     155.355
  C      -11.893     301.631     155.563
  N       -9.750     304.134     151.722
  C      -10.106     304.571     152.983
  N       -9.879     305.875     153.259
  N      -10.647     303.803     153.891
  C      -10.793     302.514     153.489
  C      -10.477     301.955     152.271
  C       -9.903     302.825     151.261
  O       -9.579     302.497     150.125
  N      -10.797     300.618     152.232
  C      -11.305     300.370     153.429
  N      -11.337     301.490     154.218
  O      -14.888     296.385     155.406
  O      -14.617     297.759     153.260
  H      -13.454     303.792     156.213
  H      -15.199     297.047     152.937
  H       -9.349     304.770     151.056
  H      -11.668     299.407     153.765
  H      -11.303     302.403     156.069
  H      -13.887     301.418     154.713
  H       -9.449     306.521     152.615
  H      -14.908     301.168     156.856
  H      -10.109     306.218     154.184
  H      -12.600     300.216     158.167
  H      -12.863     298.081     156.936
  H      -14.447     298.714     157.458
  P      -14.849     302.905     158.801
  C      -14.399     301.393     160.830
  O      -14.436     302.730     160.344
  O      -16.181     302.334     158.437
  O      -14.839     304.501     158.615
  H      -15.760     304.829     158.642
  H      -14.114     301.396     161.861
  H      -13.687     300.828     160.265
  H      -15.368     300.950     160.729

 6  7  8  9  10  11  12  13  14  15  26  29  33  34 0
 6-311+G(2d,p)
 ****
 36  38  39  40  41 0
 6-311+G(2d,p)
 ****
 1  2  3  4  5  16  17  18  19  20  21  22  23  24  25 0
 3-21G
 ****
 27  28  30  31  32  35  37  42  43  44  45  46  47 0
 3-21G
 ****
 48  49 0
 3-21G
 ****


