%nproc=1
%NoSave
%Mem=1900MB
#P OB98/GEN NMR

erre ene a

0 1
  C      391.479    -333.281     380.568
  O      392.218    -334.313     379.937
  P      393.780    -334.146     379.646
  C      393.948    -336.766     379.597
  O      394.334    -335.521     379.057
  C      394.091    -337.843     378.514
  O      395.345    -337.687     377.819
  C      394.055    -339.246     379.113
  O      392.742    -339.779     379.062
  C      395.044    -340.001     378.244
  O      394.422    -340.411     377.014
  C      396.109    -338.910     377.965
  N      397.148    -338.680     378.985
  C      397.888    -339.757     379.469
  O      397.754    -340.910     379.078
  N      398.791    -339.456     380.456
  C      399.048    -338.209     380.958
  O      399.668    -337.993     381.992
  C      398.434    -337.103     380.224
  C      397.514    -337.380     379.304
  O      394.417    -334.086     381.110
  O      394.155    -332.955     378.821
  H      395.116    -340.814     376.461
  H      394.589    -333.162     381.375
  H      399.234    -340.252     380.913
  H      398.717    -336.090     380.495
  H      397.020    -336.567     378.772
  H      396.624    -339.100     377.017
  H      395.387    -340.911     378.732
  H      394.436    -339.230     380.142
  H      393.279    -337.719     377.783
  H      392.917    -336.718     379.957
  H      394.580    -337.012     380.460
  P      392.261    -340.800     380.200
  C      390.179    -339.512     380.952
  O      390.667    -340.643     380.260
  O      392.967    -340.686     381.509
  O      392.493    -342.233     379.524
  H      393.343    -342.612     379.830
  H      389.102    -339.424     380.770
  H      390.673    -338.602     380.603
  H      390.343    -339.634     382.026
  H      390.458    -333.585     380.672
  H      391.528    -332.393     379.974
  H      391.893    -333.086     381.535

 3  4  5  6  7  8  9  10  11  12  13  23  28  29  30  31  32 0
 6-311+G(2d,p)
 ****
 33  34 0
 6-311+G(2d,p)
 ****
 1  2  14  15  16  17  18  19  20  21  22  24  25  26  27 0
 3-21G
 ****
 35  36  37  38  39  40  41  42  43  44  45 0
 3-21G
 ****


