%nproc=1
%NoSave
%Mem=1900MB
#P OB98/GEN NMR

erre ene a

0 1
  C     -101.402     139.022      60.258
  O     -101.151     137.800      60.961
  P      -99.755     137.713      61.757
  C     -100.484     136.153      63.703
  O      -99.707     136.299      62.521
  C     -101.843     135.510      63.416
  O     -101.638     134.163      62.924
  C     -102.775     135.409      64.629
  O     -104.123     135.633      64.192
  C     -102.665     133.951      65.034
  O     -103.797     133.512      65.781
  C     -102.512     133.295      63.664
  N     -103.508     128.375      63.057
  C     -104.293     129.475      62.772
  N     -105.523     129.226      62.278
  N     -103.903     130.709      62.955
  C     -102.635     130.808      63.425
  C     -101.757     129.794      63.735
  C     -102.218     128.433      63.567
  O     -101.590     127.415      63.850
  N     -100.558     130.290      64.187
  C     -100.715     131.598      64.159
  N     -101.961     131.960      63.712
  O      -99.939     138.784      62.931
  O      -98.563     138.024      60.916
  H     -103.603     132.608      66.092
  H      -99.218     139.443      62.896
  H     -103.864     127.446      62.915
  H      -99.978     132.323      64.471
  H     -103.471     133.249      63.135
  H     -101.771     133.811      65.653
  H     -105.861     128.304      62.052
  H     -102.530     136.093      65.448
  H     -106.095     130.021      62.021
  H     -102.327     136.078      62.612
  H     -100.641     137.136      64.156
  H      -99.921     135.544      64.418
  P     -104.633     137.155      64.201
  C     -105.968     136.883      61.985
  O     -106.002     137.160      63.372
  O     -103.599     137.896      63.231
  O     -104.685     137.773      65.558
  H     -103.527     138.839      63.472
  H     -104.997     136.495      61.666
  H     -106.180     137.802      61.434
  H     -106.737     136.142      61.753
  H     -102.353     138.964      59.770
  H     -100.635     139.177      59.528
  H     -101.405     139.838      60.951

 3  4  5  6  7  8  9  10  11  12  23  26  30  31  33  0
 6-311+G(2d,p)
 ****
 35  36  37  38 0
 6-311+G(2d,p)
 ****
 1  2  13  14  15  16  17  18  19  20  21  22  24  25  27  28  29 0
 3-21G
 ****
 32  34  39  40  41  42  43  44  45  46  47  48  49 0
 3-21G
 ****


