%nproc=1
%NoSave
%Mem=1900MB
#P OB98/GEN NMR

erre ene a

0 1
  C      -68.749     177.512     282.923
  O      -68.591     176.933     281.621
  P      -68.416     175.357     281.370
  C      -69.800     173.464     282.473
  O      -69.823     174.645     281.675
  C      -71.210     172.898     282.646
  O      -72.077     173.884     283.261
  C      -71.928     172.528     281.354
  O      -71.415     171.343     280.772
  C      -73.374     172.420     281.834
  O      -73.643     171.128     282.394
  C      -73.432     173.492     282.941
  N      -74.236     174.646     282.570
  C      -75.621     174.459     282.517
  O      -76.103     173.338     282.698
  N      -76.420     175.541     282.245
  C      -75.881     176.681     281.947
  N      -76.724     177.722     281.703
  C      -74.423     176.888     281.858
  C      -73.669     175.840     282.179
  O      -67.266     174.750     282.103
  O      -68.241     175.197     279.787
  H      -67.735     174.386     279.594
  H      -73.433     170.468     281.703
  H      -74.017     177.846     281.564
  H      -72.586     175.909     282.157
  H      -73.833     173.060     283.866
  H      -74.092     172.578     281.021
  H      -71.843     173.361     280.642
  H      -71.149     172.026     283.311
  H      -77.720     177.551     281.784
  H      -69.398     173.721     283.459
  H      -76.408     178.658     281.486
  H      -69.135     172.728     282.005
  P      -70.753     171.473     279.318
  C      -68.408     172.251     278.517
  O      -69.168     171.592     279.512
  O      -71.187     172.939     278.836
  O      -71.190     170.433     278.340
  H      -71.398     172.925     277.884
  H      -67.511     172.666     278.981
  H      -68.972     173.059     278.050
  H      -68.107     171.528     277.755
  H      -68.847     178.574     282.832
  H      -67.892     177.283     283.522
  H      -69.626     177.112     283.387

 3  4  5  6  7  8  9  10  11  12  13  24  27  28  29  30  32 0
 6-311+G(2d,p)
 ****
 34  35 0
 6-311+G(2d,p)
 ****
 1  2  14  15  16  17  18  19  20  21  22  23  25  26 0
 3-21G
 ****
 31  33  36  37  38  39  40  41  42  43  44  45  46 0
 3-21G
 ****


