%nproc=1
%NoSave
%Mem=1900MB
#P OB98/GEN NMR

erre ene a

0 1
  C       26.128     559.715    -940.391
  O       26.660     560.637    -941.343
  P       25.753     561.028    -942.602
  C       25.500     563.640    -942.220
  O       25.990     562.562    -942.991
  C       26.339     564.902    -942.543
  O       27.494     564.972    -941.671
  C       26.845     564.940    -943.993
  O       25.893     565.489    -944.867
  C       28.108     565.766    -943.842
  O       27.776     567.166    -943.740
  C       28.662     565.253    -942.489
  N       29.527     564.041    -942.520
  C       30.590     563.959    -943.417
  O       30.871     564.845    -944.222
  N       31.342     562.815    -943.340
  C       31.262     561.844    -942.402
  O       32.000     560.864    -942.354
  C       30.229     562.048    -941.382
  C       29.406     563.103    -941.482
  O       24.259     561.019    -942.019
  O       25.902     560.109    -943.790
  H       28.611     567.654    -943.669
  H       23.727     560.307    -942.449
  H       32.067     562.716    -944.036
  H       30.155     561.323    -940.572
  H       28.634     563.266    -940.732
  H       29.247     566.031    -941.983
  H       28.748     565.668    -944.709
  H       27.136     563.932    -944.310
  H       25.713     565.785    -942.343
  H       25.563     563.406    -941.143
  H       24.452     563.814    -942.452
  P       26.084     565.361    -946.451
  C       23.791     564.230    -946.691
  O       24.611     565.324    -947.078
  O       27.009     564.254    -946.905
  O       26.626     566.806    -946.901
  H       27.611     566.804    -946.958
  H       22.765     564.414    -947.045
  H       23.758     564.138    -945.592
  H       24.157     563.299    -947.125
  H       26.844     559.553    -939.613
  H       25.912     558.786    -940.876
  H       25.229     560.115    -939.971

 3  4  5  6  7  8  9  10  11  12  13  23  28  29  30  31  32 0
 6-311+G(2d,p)
 ****
 33  34 0
 6-311+G(2d,p)
 ****
 1  2  14  15  16  17  18  19  20  21  22  24  25  26  27 0
 3-21G
 ****
 35  36  37  38  39  40  41  42  43  44  45 0
 3-21G
 ****


