%nproc=1
%NoSave
%Mem=1900MB
#P OB98/GEN NMR

erre ene a

0 1
  C      -95.486      40.547      25.582
  O      -96.092      40.155      24.350
  P      -95.190      40.076      23.028
  C      -94.401      41.653      21.150
  O      -95.065      41.550      22.401
  C      -93.562      42.936      21.083
  O      -94.420      44.113      21.146
  C      -92.562      43.046      22.240
  O      -91.369      43.723      21.814
  C      -93.280      43.950      23.223
  O      -92.374      44.563      24.136
  C      -93.980      44.911      22.264
  N      -95.853      49.465      23.667
  C      -94.727      49.122      23.004
  N      -94.305      47.892      22.646
  C      -95.190      46.957      23.029
  C      -96.384      47.156      23.703
  C      -96.707      48.482      24.035
  N      -97.841      48.828      24.736
  N      -97.026      45.955      23.932
  C      -96.209      45.044      23.446
  N      -95.103      45.601      22.862
  O      -95.559      39.008      22.056
  O      -93.719      39.830      23.618
  H      -92.877      45.219      24.652
  H      -93.261      39.166      23.067
  H      -94.075      49.948      22.730
  H      -96.360      43.976      23.504
  H      -93.291      45.671      21.876
  H      -94.007      43.367      23.801
  H      -92.280      42.089      22.690
  H      -93.042      42.972      20.119
  H      -95.134      41.645      20.341
  H      -97.930      49.789      25.029
  H      -98.406      48.096      25.142
  H      -93.780      40.763      21.000
  P      -89.993      42.904      21.986
  C      -88.585      42.169      24.061
  O      -89.732      42.818      23.563
  O      -88.872      43.441      21.159
  O      -90.439      41.422      21.578
  H      -91.238      41.098      22.026
  H      -88.528      42.332      25.140
  H      -87.678      42.571      23.601
  H      -88.650      41.094      23.873
  H      -96.223      40.548      26.358
  H      -95.074      41.529      25.480
  H      -94.706      39.858      25.831

 3  4  5  6  7  8  9  10  11  12  22  25  29  30  31  32 0
 6-311+G(2d,p)
 ****
 33  36  37 0
 6-311+G(2d,p)
 ****
 1  2  13  14  15  16  17  18  19  20  21  23  24  26 0
 3-21G
 ****
 27  28  34  35  38  39  40  41  42  43  44  45  46  47  48 0
 3-21G
 ****


