%nproc=1
%NoSave
%Mem=1900MB
#P OB98/GEN NMR

erre ene a

0 1
  C      232.846    -194.493    -223.257
  O      233.166    -195.575    -224.136
  P      234.025    -195.383    -225.477
  C      236.291    -194.200    -225.841
  O      235.569    -195.176    -225.097
  C      237.803    -194.334    -225.637
  O      238.165    -193.995    -224.286
  C      238.356    -195.736    -225.867
  O      238.439    -196.035    -227.247
  C      239.697    -195.641    -225.148
  O      240.692    -195.030    -225.985
  C      239.355    -194.738    -223.948
  N      239.181    -195.489    -222.713
  C      240.328    -195.679    -221.931
  O      241.422    -195.275    -222.319
  N      240.205    -196.349    -220.738
  C      239.058    -196.846    -220.393
  N      238.992    -197.495    -219.196
  C      237.844    -196.749    -221.230
  C      237.983    -196.063    -222.360
  O      233.481    -194.342    -226.404
  O      234.009    -196.822    -226.189
  H      240.930    -195.695    -226.662
  H      234.054    -196.700    -227.155
  H      236.918    -197.203    -220.918
  H      237.135    -195.929    -223.034
  H      240.143    -193.988    -223.797
  H      240.084    -196.625    -224.852
  H      237.717    -196.473    -225.357
  H      238.297    -193.612    -226.308
  H      239.840    -197.541    -218.643
  H      235.966    -193.205    -225.503
  H      238.153    -197.917    -218.834
  H      236.039    -194.306    -226.902
  P      237.313    -196.942    -227.940
  C      235.011    -196.584    -229.021
  O      236.134    -195.968    -228.410
  O      236.881    -198.139    -227.157
  O      237.983    -197.380    -229.332
  H      237.647    -198.264    -229.577
  H      234.151    -195.919    -228.925
  H      234.778    -197.538    -228.545
  H      235.226    -196.744    -230.083
  H      232.269    -194.861    -222.434
  H      232.280    -193.757    -223.789
  H      233.749    -194.052    -222.890

 3  4  5  6  7  8  9  10  11  12  13  23  27  28  29  30  32 0
 6-311+G(2d,p)
 ****
 34  35 0
 6-311+G(2d,p)
 ****
 1  2  14  15  16  17  18  19  20  21  22  24  25  26 0
 3-21G
 ****
 31  33  36  37  38  39  40  41  42  43  44  45  46 0
 3-21G
 ****


