%nproc=1
%NoSave
%Mem=1900MB
#P OB98/GEN NMR

erre ene a

0 1
  C     -241.691    -196.183      67.140
  O     -242.869    -196.462      67.871
  H     -241.244    -197.128      66.818
  H     -240.974    -195.652      67.771
  H     -241.925    -195.584      66.256
  P     -243.704    -195.199      68.401
  C     -245.953    -196.457      68.039
  O     -245.095    -195.780      68.952
  C     -247.176    -196.992      68.779
  O     -246.748    -197.892      69.828
  C     -248.007    -195.919      69.471
  O     -248.854    -195.236      68.567
  C     -248.761    -196.749      70.502
  O     -249.925    -197.362      69.934
  C     -247.736    -197.825      70.880
  N     -248.395    -197.806      75.935
  C     -249.197    -198.201      74.921
  N     -248.937    -198.190      73.595
  C     -247.699    -197.721      73.360
  C     -246.774    -197.276      74.290
  C     -247.161    -197.333      75.639
  N     -246.359    -196.898      76.670
  N     -245.633    -196.823      73.660
  C     -245.860    -197.000      72.373
  N     -247.093    -197.544      72.148
  O     -244.116    -194.450      67.047
  O     -242.972    -194.299      69.340
  H     -250.324    -197.912      70.638
  H     -243.468    -193.746      66.852
  H     -250.177    -198.568      75.213
  H     -245.172    -196.746      71.575
  H     -248.189    -198.821      70.961
  H     -249.096    -196.133      71.340
  H     -247.350    -195.214      69.999
  H     -247.789    -197.562      68.071
  H     -245.409    -197.294      67.587
  H     -246.252    -195.758      67.250
  H     -246.712    -196.948      77.612
  H     -245.480    -196.445      76.449
  P     -248.520    -193.713      68.204
  C     -248.260    -194.227      65.668
  O     -248.926    -193.474      66.670
  O     -246.918    -193.682      68.180
  O     -249.082    -192.707      69.153
  H     -246.572    -193.311      69.014
  H     -248.640    -193.955      64.706
  H     -248.428    -195.270      65.836
  H     -247.210    -194.024      65.708

 6  7  8  9  10  11  12  13  14  15  25  28  32  33  34  35 0
 6-311+G(2d,p)
 ****
 36  37  40 0
 6-311+G(2d,p)
 ****
 1  2  3  4  5  16  17  18  19  20  21  22  23  24 0
 3-21G
 ****
 26  27  29  30  31  38  39 41  42  43  44  45  46  47  48 0
 3-21G
 ****


