%nproc=1
%NoSave
%Mem=1900MB
#P OB98/GEN NMR

erre ene a

0 1
  C     -146.478    -767.975     -14.264
  O     -147.350    -768.730     -15.080
  H     -145.454    -768.310     -14.447
  H     -146.716    -768.133     -13.208
  H     -146.540    -766.908     -14.506
  P     -148.861    -768.237     -15.256
  C     -148.254    -766.146     -16.642
  O     -148.923    -767.399     -16.624
  C     -147.537    -765.933     -17.981
  O     -146.355    -766.785     -18.024
  C     -148.419    -766.333     -19.167
  O     -148.099    -765.611     -20.358
  C     -148.062    -767.798     -19.374
  O     -148.334    -768.266     -20.691
  C     -146.573    -767.795     -19.030
  N     -145.699    -772.712     -20.079
  C     -146.400    -771.776     -20.816
  N     -146.918    -772.195     -21.994
  N     -146.567    -770.532     -20.431
  C     -146.056    -770.270     -19.199
  C     -145.379    -771.131     -18.369
  C     -145.149    -772.479     -18.826
  O     -144.575    -773.362     -18.193
  N     -145.015    -770.509     -17.202
  C     -145.479    -769.282     -17.313
  N     -146.090    -769.077     -18.530
  O     -149.020    -767.096     -14.144
  O     -149.913    -769.293     -15.111
  H     -147.705    -767.823     -21.294
  H     -149.949    -766.965     -13.917
  H     -145.574    -773.639     -20.443
  H     -145.369    -768.496     -16.579
  H     -145.966    -767.536     -19.889
  H     -148.654    -768.399     -18.678
  H     -146.976    -773.174     -22.227
  H     -149.485    -766.221     -18.959
  H     -147.672    -771.617     -22.384
  H     -147.176    -764.896     -18.055
  H     -147.537    -766.144     -15.815
  H     -148.964    -765.329     -16.458
  P     -149.214    -765.507     -21.507
  C     -150.232    -763.167     -20.800
  O     -149.585    -763.970     -21.754
  O     -150.523    -766.107     -20.829
  O     -148.844    -766.217     -22.770
  H     -150.788    -766.928     -21.287
  H     -150.370    -762.183     -21.197
  H     -149.634    -763.114     -19.914
  H     -151.185    -763.593     -20.563

 6  7  8  9  10  11  12  13  14  15  26  29  33  34 0
 6-311+G(2d,p)
 ****
 36  38  39  40  41 0
 6-311+G(2d,p)
 ****
 1  2  3  4  5  16  17  18  19  20  21  22  23  24  25 0
 3-21G
 ****
 27  28  30  31  32  35  37  42  43  44  45  46  47 0
 3-21G
 ****
 48  49 0
 3-21G
 ****


