%nproc=1
%NoSave
%Mem=1900MB
#P OB98/GEN NMR

erre ene a

0 1
  C      -60.250    -264.264    -540.516
  O      -59.354    -265.337    -540.665
  P      -59.894    -266.860    -540.647
  C      -59.961    -267.007    -543.218
  O      -60.725    -267.065    -542.008
  C      -60.232    -268.263    -544.061
  O      -61.646    -268.395    -544.360
  C      -59.562    -268.251    -545.420
  O      -58.151    -268.298    -545.448
  C      -60.302    -269.371    -546.128
  O      -59.783    -270.656    -545.774
  C      -61.740    -269.191    -545.568
  N      -62.639    -268.587    -546.542
  C      -63.865    -269.233    -546.726
  O      -64.194    -270.242    -546.120
  N      -64.693    -268.682    -547.667
  C      -64.398    -267.607    -548.460
  O      -65.179    -267.192    -549.316
  C      -63.099    -266.978    -548.241
  C      -62.283    -267.487    -547.309
  O      -60.631    -267.250    -539.402
  O      -58.575    -267.716    -540.921
  H      -60.376    -271.324    -546.143
  H      -58.128    -267.526    -541.765
  H      -65.569    -269.142    -547.826
  H      -62.845    -266.113    -548.839
  H      -61.315    -267.044    -547.122
  H      -62.154    -270.162    -545.271
  H      -60.230    -269.292    -547.224
  H      -59.832    -267.309    -545.925
  H      -59.944    -269.145    -543.471
  H      -58.894    -266.965    -542.970
  H      -60.216    -266.098    -543.775
  P      -57.254    -267.336    -546.374
  C      -57.105    -265.378    -544.658
  O      -57.528    -265.821    -545.933
  O      -57.212    -267.643    -547.836
  O      -55.778    -267.586    -545.757
  H      -55.115    -267.474    -546.463
  H      -57.423    -264.344    -544.508
  H      -56.017    -265.437    -544.577
  H      -57.575    -266.000    -543.877
  H      -59.710    -263.341    -540.554
  H      -60.751    -264.346    -539.574
  H      -60.971    -264.289    -541.307

 3  4  5  6  7  8  9  10  11  12  13  23  28  29  30  31  32 0
 6-311+G(2d,p)
 ****
 33  34 0
 6-311+G(2d,p)
 ****
 1  2  14  15  16  17  18  19  20  21  22  24  25  26  27 0
 3-21G
 ****
 35  36  37  38  39  40  41  42  43  44  45 0
 3-21G
 ****


