%nproc=1
%NoSave
%Mem=1900MB
#P OB98/GEN NMR

erre ene a

0 1
  C      250.885     233.021      52.630
  O      251.193     231.746      53.203
  P      252.675     231.538      53.785
  C      251.909     231.268      56.277
  O      252.611     232.034      55.309
  C      251.787     232.056      57.580
  O      251.210     233.362      57.332
  C      250.885     231.405      58.617
  O      251.519     230.294      59.230
  C      250.618     232.583      59.546
  O      251.724     232.772      60.444
  C      250.539     233.761      58.553
  N      249.174     234.199      58.291
  C      248.727     235.276      59.053
  O      249.414     235.822      59.913
  N      247.447     235.692      58.803
  C      246.582     235.130      57.910
  O      245.449     235.554      57.723
  C      247.094     233.966      57.172
  C      248.347     233.558      57.392
  O      253.471     232.695      53.022
  O      253.197     230.158      53.570
  H      252.938     233.495      52.884
  H      252.027     231.879      60.700
  H      247.108     236.478      59.336
  H      246.425     233.479      56.473
  H      248.741     232.699      56.859
  H      251.101     234.621      58.939
  H      249.722     232.440      60.157
  H      249.947     231.083      58.148
  H      252.795     232.197      57.988
  H      252.443     230.333      56.472
  H      250.924     231.009      55.877
  P      250.938     228.839      58.871
  C      253.231     227.694      58.360
  O      251.993     228.163      57.874
  O      249.703     229.223      57.927
  O      250.569     228.028      60.068
  H      249.920     229.912      57.277
  H      253.642     226.979      57.642
  H      253.119     227.195      59.326
  H      253.927     228.532      58.459
  H      249.872     233.021      52.284
  H      251.543     233.211      51.808
  H      251.010     233.784      53.370

 3  4  5  6  7  8  9  10  11  12  13  24  28  29  30  31  32 0
 6-311+G(2d,p)
 ****
 33  34 0
 6-311+G(2d,p)
 ****
 1  2  14  15  16  17  18  19  20  21  22  23  25  26  27 0
 3-21G
 ****
 35  36  37  38  39  40  41  42  43  44  45 0
 3-21G
 ****


