%nproc=1
%NoSave
%Mem=1900MB
#P OB98/GEN NMR

erre ene a

0 1
  C      279.870     198.332     214.167
  O      280.078     197.099     213.517
  H      280.440     198.337     215.099
  H      278.808     198.447     214.405
  H      280.200     199.171     213.550
  P      279.752     196.986     211.957
  C      282.090     197.856     211.299
  O      280.686     198.032     211.173
  C      282.827     198.234     210.013
  O      282.447     197.331     208.953
  C      282.483     199.647     209.535
  O      283.284     200.670     210.104
  C      282.721     199.537     208.031
  O      284.089     199.823     207.696
  C      282.389     198.072     207.726
  N      279.737     196.590     203.614
  C      281.103     196.749     203.754
  N      281.841     196.517     202.646
  N      281.675     197.115     204.871
  C      280.800     197.405     205.860
  C      279.427     197.307     205.832
  C      278.806     196.829     204.615
  O      277.604     196.656     204.446
  N      278.867     197.729     207.014
  C      279.894     198.163     207.717
  N      281.093     197.913     207.091
  O      278.300     197.659     211.831
  O      279.738     195.595     211.399
  H      284.643     199.100     208.047
  H      277.807     197.237     211.104
  H      279.356     196.277     202.739
  H      279.832     198.619     208.698
  H      283.130     197.627     207.051
  H      282.107     200.257     207.487
  H      281.447     196.317     201.742
  H      281.424     199.863     209.698
  H      282.822     196.804     202.652
  H      283.906     198.113     210.166
  H      282.253     196.802     211.525
  H      282.472     198.437     212.144
  P      282.759     202.178     210.173
  C      281.083     201.441     212.057
  O      281.330     202.184     210.882
  O      282.415     202.512     208.647
  O      283.714     203.164     210.760
  H      283.142     203.012     208.231
  H      280.068     201.585     212.363
  H      281.740     201.773     212.834
  H      281.254     200.402     211.865

 6  7  8  9  10  11  12  13  14  15  26  29  33  34 0
 6-311+G(2d,p)
 ****
 36  38  39  40  41 0
 6-311+G(2d,p)
 ****
 1  2  3  4  5  16  17  18  19  20  21  22  23  24  25 0
 3-21G
 ****
 27  28  30  31  32  35  37  42  43  44  45  46  47 0
 3-21G
 ****
 48  49 0
 3-21G
 ****


