%nproc=1
%NoSave
%Mem=1900MB
#P OB98/GEN NMR

erre ene a

0 1
  C       69.174       6.526     -56.067
  O       69.023       6.330     -54.675
  H       69.049       7.583     -56.308
  H       70.181       6.213     -56.358
  H       68.445       5.927     -56.621
  P       67.557       6.561     -54.068
  C       67.790       9.139     -53.832
  O       67.143       8.057     -54.485
  C       66.764      10.180     -53.380
  O       66.268      10.885     -54.548
  C       65.558       9.574     -52.656
  O       65.178      10.442     -51.586
  C       64.476       9.562     -53.722
  O       63.167       9.578     -53.163
  C       64.830      10.807     -54.527
  N       60.563      10.492     -57.313
  C       60.766      10.643     -55.987
  N       61.939      10.726     -55.324
  C       62.973      10.684     -56.184
  C       62.921      10.531     -57.559
  C       61.641      10.422     -58.129
  N       61.426      10.230     -59.475
  N       64.197      10.497     -58.090
  C       65.000      10.628     -57.052
  N       64.307      10.740     -55.880
  O       67.852       6.678     -52.495
  O       66.553       5.502     -54.371
  H       62.523       9.427     -53.885
  H       67.966       5.784     -52.120
  H       59.869      10.701     -55.376
  H       66.081      10.639     -57.094
  H       64.438      11.727     -54.074
  H       64.574       8.659     -54.336
  H       65.758       8.577     -52.261
  H       67.272      10.923     -52.753
  H       68.498       9.602     -54.527
  H       60.477      10.107     -59.789
  H       62.218      10.115     -60.089
  H       68.339       8.760     -52.962
  P       65.543       9.959     -50.100
  C       63.128       9.547     -49.253
  O       64.385       8.975     -49.583
  O       65.338      11.281     -49.221
  O       66.933       9.427     -49.968
  H       66.121      11.431     -48.657
  H       62.461       8.777     -48.926
  H       62.719      10.031     -50.115
  H       63.257      10.263     -48.469

 6  7  8  9  10  11  12  13  14  15  25  28  32  33  34  35 0
 6-311+G(2d,p)
 ****
 36  39  40 0
 6-311+G(2d,p)
 ****
 1  2  3  4  5  16  17  18  19  20  21  22  23  24 0
 3-21G
 ****
 26  27  29  30  31  37  38  41  42  43  44  45  46  47 0
 3-21G
 ****
 48 0
 3-21G
 ****


