%nproc=1
%NoSave
%Mem=1900MB
#P OB98/GEN NMR

erre ene a

0 1
  C     -188.781     -79.575     108.876
  O     -189.190     -78.635     109.871
  P     -190.197     -77.458     109.460
  C     -191.126     -76.808     111.774
  O     -190.303     -76.421     110.684
  C     -190.324     -77.621     112.801
  O     -189.210     -76.837     113.318
  C     -191.173     -78.045     114.007
  O     -190.736     -79.319     114.508
  C     -190.827     -76.997     115.046
  O     -191.122     -77.446     116.367
  C     -189.346     -76.782     114.752
  N     -188.678     -73.888     118.924
  C     -189.138     -75.146     118.769
  N     -189.267     -75.861     117.631
  C     -188.844     -75.147     116.575
  C     -188.340     -73.856     116.577
  C     -188.268     -73.211     117.823
  N     -187.827     -71.915     117.975
  N     -188.014     -73.454     115.298
  C     -188.362     -74.466     114.533
  N     -188.837     -75.524     115.258
  O     -191.504     -77.893     108.888
  O     -189.347     -76.627     108.382
  H     -190.797     -76.768     116.987
  H     -189.935     -76.370     107.641
  H     -189.450     -75.646     119.683
  H     -188.308     -74.478     113.452
  H     -188.728     -77.583     115.176
  H     -191.407     -76.084     114.860
  H     -192.248     -78.093     113.813
  H     -189.897     -78.497     112.303
  H     -191.969     -77.398     111.409
  H     -187.920     -71.499     118.890
  H     -187.662     -71.355     117.152
  H     -191.561     -75.911     112.229
  P     -191.876     -80.452     114.638
  C     -190.211     -82.467     114.586
  O     -191.156     -81.715     115.313
  O     -192.608     -80.712     113.364
  O     -192.801     -79.856     115.801
  H     -192.321     -79.576     116.599
  H     -189.746     -83.193     115.256
  H     -189.424     -81.819     114.183
  H     -190.699     -83.005     113.772
  H     -188.114     -80.289     109.313
  H     -188.282     -79.060     108.082
  H     -189.641     -80.080     108.488

 3  4  5  6  7  8  9  10  11  12  22  25  29  30  31  32 0
 6-311+G(2d,p)
 ****
 33  36  37 0
 6-311+G(2d,p)
 ****
 1  2  13  14  15  16  17  18  19  20  21  23  24  26 0
 3-21G
 ****
 27  28  34  35  38  39  40  41  42  43  44  45  46  47  48 0
 3-21G
 ****


