%nproc=1
%NoSave
%Mem=1900MB
#P OB98/GEN NMR

erre ene a

0 1
  C     -368.857     286.933     206.549
  O     -368.119     285.989     205.800
  P     -368.100     286.031     204.200
  C     -370.650     285.776     204.115
  O     -369.402     285.264     203.663
  C     -371.769     284.743     203.958
  O     -373.011     285.300     204.459
  C     -372.002     284.298     202.506
  O     -372.309     282.894     202.541
  C     -373.225     285.096     202.094
  O     -373.923     284.506     201.010
  C     -373.998     285.139     203.422
  N     -374.982     286.209     203.455
  C     -376.311     285.843     203.705
  O     -376.623     284.652     203.755
  N     -377.244     286.838     203.878
  C     -376.918     288.069     203.628
  N     -377.854     289.025     203.878
  C     -375.593     288.461     203.117
  C     -374.665     287.504     203.093
  O     -366.818     285.588     203.573
  O     -368.410     287.562     203.842
  H     -367.714     287.896     203.244
  H     -373.289     284.332     200.281
  H     -375.406     289.480     202.807
  H     -373.655     287.698     202.762
  H     -374.505     284.183     203.602
  H     -372.918     286.107     201.797
  H     -371.136     284.464     201.863
  H     -371.519     283.880     204.582
  H     -378.740     288.722     204.262
  H     -370.895     286.661     203.518
  H     -377.603     290.005     204.022
  H     -370.567     286.092     205.162
  P     -371.293     281.874     201.828
  C     -371.815     282.625     199.396
  O     -371.842     281.582     200.350
  O     -371.630     280.499     202.590
  O     -369.834     282.180     201.957
  H     -370.848     279.915     202.548
  H     -372.288     282.272     198.477
  H     -370.783     282.907     199.171
  H     -372.369     283.499     199.762
  H     -368.738     286.732     207.593
  H     -369.892     286.864     206.288
  H     -368.500     287.918     206.333

 3  4  5  6  7  8  9  10  11  12  13  24  27  28  29  30  32 0
 6-311+G(2d,p)
 ****
 34  35 0
 6-311+G(2d,p)
 ****
 1  2  14  15  16  17  18  19  20  21  22  23  25  26 0
 3-21G
 ****
 31  33  36  37  38  39  40  41  42  43  44  45  46 0
 3-21G
 ****


