%nproc=1
%NoSave
%Mem=1900MB
#P OB98/GEN NMR

erre ene a

0 1
  C      124.521      39.176      29.892
  O      125.468      38.540      30.725
  H      124.003      38.413      29.305
  H      125.024      39.862      29.204
  H      123.783      39.721      30.486
  P      126.262      39.419      31.805
  C      128.796      39.491      31.327
  O      127.522      40.058      31.049
  C      128.901      38.113      30.678
  O      128.654      38.210      29.258
  C      130.276      37.472      30.816
  O      130.472      36.954      32.117
  C      130.215      36.426      29.715
  O      129.502      35.259      30.154
  C      129.430      37.173      28.615
  N      130.296      37.728      27.576
  C      130.591      36.894      26.503
  O      130.189      35.734      26.418
  N      131.397      37.431      25.534
  C      132.013      38.647      25.589
  O      132.798      39.046      24.735
  C      131.684      39.476      26.758
  C      130.854      38.988      27.681
  O      126.577      38.735      33.092
  O      125.305      40.685      32.035
  H      129.376      34.700      29.362
  H      124.852      40.595      32.894
  H      131.633      36.837      24.755
  H      132.141      40.453      26.830
  H      130.605      39.581      28.553
  H      128.711      36.496      28.135
  H      131.206      36.096      29.402
  H      131.057      38.200      30.568
  H      128.125      37.468      31.113
  H      128.909      39.393      32.411
  H      129.574      40.161      30.946
  P      131.947      36.878      32.732
  C      133.138      34.624      33.058
  O      132.668      35.585      32.118
  O      132.027      37.001      34.218
  O      132.717      38.089      32.022
  H      133.025      38.719      32.701
  H      133.598      33.811      32.537
  H      132.315      34.258      33.635
  H      133.854      35.082      33.708

 6  7  8  9  10  11  12  13  14  15  16  26  31  32  33  34  35 0
 6-311+G(2d,p)
 ****
 36  37 0
 6-311+G(2d,p)
 ****
 1  2  3  4  5  17  18  19  20  21  22  23  24  25 0
 3-21G
 ****
 27  28  29  30  38  39  40  41  42  43  44  45 0
 3-21G
 ****


