%nproc=1
%NoSave
%Mem=1900MB
#P OB98/GEN NMR

erre ene a

0 1
  C      -74.149     -66.808    -151.815
  O      -74.326     -65.833    -152.848
  P      -73.455     -64.490    -152.727
  C      -73.480     -62.377    -151.218
  O      -74.198     -63.503    -151.705
  C      -74.455     -61.312    -150.711
  O      -75.354     -60.871    -151.750
  C      -75.356     -61.801    -149.583
  O      -74.643     -61.884    -148.361
  C      -76.453     -60.742    -149.611
  O      -76.017     -59.547    -148.939
  C      -76.593     -60.465    -151.117
  N      -80.633     -60.029    -154.234
  C      -79.715     -59.128    -153.810
  N      -78.668     -59.325    -152.979
  C      -78.612     -60.607    -152.579
  C      -79.473     -61.635    -152.928
  C      -80.529     -61.305    -153.793
  N      -81.474     -62.220    -154.210
  N      -79.097     -62.814    -152.316
  C      -78.041     -62.498    -151.594
  N      -77.700     -61.176    -151.730
  O      -73.663     -63.788    -154.152
  O      -72.010     -64.735    -152.438
  H      -75.211     -59.233    -149.393
  H      -72.841     -63.847    -154.676
  H      -79.833     -58.119    -154.193
  H      -77.489     -63.184    -150.961
  H      -76.738     -59.398    -151.330
  H      -77.378     -61.071    -149.128
  H      -75.776     -62.785    -149.835
  H      -73.868     -60.447    -150.365
  H      -72.852     -61.956    -152.008
  H      -82.243     -61.885    -154.770
  H      -81.459     -63.152    -153.823
  H      -72.802     -62.705    -150.422
  P      -74.421     -63.338    -147.720
  C      -76.031     -65.302    -147.322
  O      -75.916     -63.907    -147.545
  O      -74.009     -62.970    -146.221
  O      -73.474     -64.219    -148.464
  H      -74.592     -62.284    -145.843
  H      -77.088     -65.546    -147.187
  H      -75.480     -65.587    -146.419
  H      -75.647     -65.853    -148.184
  H      -74.780     -67.650    -152.008
  H      -74.408     -66.378    -150.870
  H      -73.127     -67.125    -151.795

 3  4  5  6  7  8  9  10  11  12  22  25  29  30  31  32 0
 6-311+G(2d,p)
 ****
 33  36  37 0
 6-311+G(2d,p)
 ****
 1  2  13  14  15  16  17  18  19  20  21  23  24  26 0
 3-21G
 ****
 27  28  34  35  38  39  40  41  42  43  44  45  46  47  48 0
 3-21G
 ****


