%nproc=1
%NoSave
%Mem=1900MB
#P OB98/GEN NMR

erre ene a

0 1
  C     -112.556     -29.108      31.100
  O     -111.713     -28.131      30.518
  P     -110.603     -28.628      29.475
  C     -108.660     -27.453      30.755
  O     -109.387     -27.588      29.542
  C     -107.621     -26.338      30.613
  O     -106.752     -26.601      29.490
  C     -108.230     -24.968      30.347
  O     -108.731     -24.384      31.538
  C     -107.048     -24.216      29.753
  O     -106.194     -23.699      30.786
  C     -106.331     -25.327      28.958
  N     -106.570     -25.232      27.522
  C     -105.468     -24.892      26.743
  O     -104.357     -24.659      27.221
  N     -105.694     -24.789      25.398
  C     -106.899     -24.935      24.774
  O     -107.049     -24.774      23.569
  C     -108.034     -25.264      25.651
  C     -107.823     -25.389      26.963
  O     -111.267     -28.347      28.046
  O     -110.203     -30.057      29.629
  H     -105.744     -24.469      31.186
  H     -111.006     -29.046      27.416
  H     -104.904     -24.568      24.814
  H     -109.006     -25.386      25.190
  H     -108.648     -25.618      27.627
  H     -105.249     -25.273      29.129
  H     -107.365     -23.364      29.144
  H     -109.020     -25.050      29.590
  H     -107.008     -26.318      31.522
  H     -108.159     -28.397      30.984
  H     -109.358     -27.226      31.567
  P     -110.310     -24.094      31.597
  C     -110.439     -21.699      32.632
  O     -110.502     -23.093      32.834
  O     -110.853     -25.509      32.114
  O     -110.871     -23.649      30.289
  H     -110.222     -25.950      32.706
  H     -110.865     -21.414      31.667
  H     -109.398     -21.373      32.682
  H     -111.004     -21.203      33.426
  H     -113.242     -28.634      31.770
  H     -111.962     -29.816      31.639
  H     -113.101     -29.613      30.330

 3  4  5  6  7  8  9  10  11  12  13  23  28  29  30  31  32 0
 6-311+G(2d,p)
 ****
 33  34 0
 6-311+G(2d,p)
 ****
 1  2  14  15  16  17  18  19  20  21  22  24  25  26 0
 3-21G
 ****
 27  35  36  37  38  39  40  41  42  43  44  45 0
 3-21G
 ****


