%nproc=1
%NoSave
%Mem=1900MB
#P OB98/GEN NMR

erre ene a

0 1
  C      -13.402      -4.246      12.704
  O      -14.709      -4.364      12.169
  P      -14.972      -5.528      11.095
  C      -14.251      -5.993       8.644
  O      -14.247      -5.083       9.735
  C      -13.053      -5.748       7.725
  O      -11.830      -5.869       8.505
  C      -12.943      -6.727       6.545
  O      -12.403      -5.987       5.445
  C      -11.944      -7.743       7.068
  O      -11.360      -8.551       6.061
  C      -10.988      -6.823       7.820
  N       -6.852      -9.784       8.321
  C       -7.399      -9.176       7.244
  N       -8.498      -8.395       7.189
  C       -9.041      -8.256       8.410
  C       -8.609      -8.829       9.594
  C       -7.456      -9.627       9.521
  N       -6.905     -10.254      10.621
  N       -9.438      -8.482      10.640
  C      -10.359      -7.713      10.097
  N      -10.148      -7.531       8.758
  O      -16.525      -5.360      10.754
  O      -14.648      -6.910      11.569
  H      -10.789      -9.231       6.468
  H      -16.958      -6.227      10.642
  H       -6.885      -9.338       6.301
  H      -11.197      -7.277      10.621
  H      -10.335      -6.264       7.139
  H      -12.456      -8.420       7.763
  H      -13.904      -7.158       6.249
  H      -13.104      -4.716       7.357
  H      -15.165      -5.854       8.059
  H       -6.206     -10.957      10.432
  H       -7.474     -10.299      11.457
  H      -14.249      -7.019       9.027
  P      -13.313      -5.758       4.143
  C      -13.802      -7.218       2.086
  O      -13.307      -7.188       3.411
  O      -12.313      -4.918       3.217
  O      -14.636      -5.114       4.378
  H      -11.443      -5.348       3.147
  H      -13.649      -8.221       1.680
  H      -13.265      -6.497       1.463
  H      -14.872      -6.995       2.083
  H      -13.374      -3.435      13.401
  H      -12.708      -4.060      11.911
  H      -13.138      -5.155      13.203

 3  4  5  6  7  8  9  10  11  12  22  25  29  30  31  32 0
 6-311+G(2d,p)
 ****
 33  36  37 0
 6-311+G(2d,p)
 ****
 1  2  13  14  15  16  17  18  19  20  21  23  24  26 0
 3-21G
 ****
 27  28  34  35  38  39  40  41  42  43  44  45  46  47  48 0
 3-21G
 ****


