%nproc=1
%NoSave
%Mem=1900MB
#P OB98/GEN NMR

erre ene a

0 1
  C     -104.191     -86.510     -29.710
  O     -103.686     -85.674     -30.733
  H     -105.146     -86.927     -30.038
  H     -104.351     -85.930     -28.797
  H     -103.496     -87.331     -29.514
  P     -102.272     -84.975     -30.449
  C      -99.949     -86.149     -30.309
  O     -101.159     -85.973     -31.029
  C      -99.158     -87.335     -30.874
  O      -99.986     -88.533     -30.788
  C      -98.766     -87.174     -32.352
  O      -97.552     -87.911     -32.570
  C      -99.919     -87.871     -33.055
  O      -99.608     -88.128     -34.405
  C     -100.093     -89.069     -32.125
  N     -102.304     -93.615     -32.884
  C     -101.014     -93.264     -32.689
  N     -100.503     -92.034     -32.482
  C     -101.479     -91.110     -32.463
  C     -102.837     -91.318     -32.638
  C     -103.246     -92.644     -32.862
  N     -104.558     -93.004     -33.069
  N     -103.528     -90.122     -32.558
  C     -102.601     -89.212     -32.338
  N     -101.350     -89.761     -32.282
  O     -102.110     -85.103     -28.863
  O     -102.150     -83.562     -30.911
  H      -99.415     -87.293     -34.883
  H     -102.417     -84.285     -28.429
  H     -100.297     -94.080     -32.705
  H     -102.777     -88.149     -32.223
  H      -99.290     -89.804     -32.253
  H     -100.815     -87.242     -33.053
  H      -98.619     -86.133     -32.651
  H      -98.279     -87.513     -30.244
  H     -100.194     -86.334     -29.258
  H      -99.344     -85.240     -30.383
  H     -104.766     -93.975     -33.238
  H     -105.269     -92.288     -33.072
  P      -96.140     -87.181     -32.335
  C      -96.113     -86.363     -29.850
  O      -95.725     -87.349     -30.794
  O      -96.552     -85.632     -32.398
  O      -95.076     -87.486     -33.337
  H      -95.791     -85.104     -32.706
  H      -95.753     -86.636     -28.880
  H      -97.180     -86.292     -29.827
  H      -95.698     -85.417     -30.131

 6  7  8  9  10  11  12  13  14  15  25  28  32  33  34  35 0
 6-311+G(2d,p)
 ****
 36  37  40 0
 6-311+G(2d,p)
 ****
 1  2  3  4  5  16  17  18  19  20  21  22  23  24 0
 3-21G
 ****
 26  27  29  30  31  38  39 41  42  43  44  45  46  47  48 0
 3-21G
 ****


