%nproc=1
%NoSave
%Mem=1900MB
#P OB98/GEN NMR

erre ene a

0 1
  C      301.240    -542.757    -548.389
  O      302.523    -543.128    -547.914
  P      303.728    -543.180    -548.973
  C      305.319    -542.897    -546.939
  O      305.076    -543.549    -548.178
  C      306.513    -543.515    -546.230
  O      306.216    -544.914    -545.886
  C      307.809    -543.528    -547.067
  O      308.945    -543.358    -546.191
  C      307.864    -544.932    -547.618
  O      309.195    -545.306    -547.970
  C      307.267    -545.728    -546.452
  N      307.993    -550.721    -546.241
  C      308.566    -549.719    -545.485
  N      309.525    -550.109    -544.608
  N      308.222    -548.469    -545.564
  C      307.258    -548.226    -546.485
  C      306.603    -549.142    -547.287
  C      306.999    -550.527    -547.189
  O      306.548    -551.458    -547.847
  N      305.649    -548.529    -548.064
  C      305.762    -547.254    -547.781
  N      306.741    -547.016    -546.850
  O      303.941    -541.633    -549.357
  O      303.455    -544.008    -550.193
  H      309.164    -546.243    -548.224
  H      303.569    -541.466    -550.254
  H      308.291    -551.681    -546.148
  H      305.175    -546.446    -548.220
  H      308.016    -545.897    -545.665
  H      307.242    -544.999    -548.506
  H      309.882    -551.051    -544.553
  H      307.836    -542.763    -547.856
  H      310.005    -549.383    -544.083
  H      306.678    -542.991    -545.276
  H      304.444    -542.975    -546.299
  H      305.507    -541.828    -547.121
  P      309.284    -541.833    -545.779
  C      309.464    -542.653    -543.310
  O      310.046    -541.926    -544.379
  O      307.851    -541.229    -545.400
  O      309.969    -541.052    -546.847
  H      307.844    -540.269    -545.517
  H      310.104    -543.498    -543.060
  H      308.460    -543.019    -543.563
  H      309.374    -541.983    -542.447
  H      300.543    -542.766    -547.577
  H      300.923    -543.451    -549.139
  H      301.286    -541.774    -548.809

 3  4  5  6  7  8  9  10  11  12  23  26  30  31 0
 6-311+G(2d,p)
 ****
 33  35  36  37  38 0
 6-311+G(2d,p)
 ****
 1  2  13  14  15  16  17  18  19  20  21  22  24  25 0
 3-21G
 ****
 27  28  29  32  34  39  40  41  42  43  44  45  46  47  48  49 0
 3-21G
 ****


