%nproc=1
%NoSave
%Mem=1900MB
#P OB98/GEN NMR

erre ene a

0 1
  C     -168.991    -567.889     119.217
  O     -168.055    -567.850     120.297
  P     -166.820    -566.838     120.177
  C     -165.204    -568.406     118.870
  O     -165.965    -567.218     118.859
  C     -164.273    -568.511     117.651
  O     -163.232    -567.494     117.719
  C     -163.557    -569.858     117.519
  O     -163.326    -570.112     116.137
  C     -162.225    -569.584     118.196
  O     -161.234    -570.553     117.826
  C     -161.957    -568.157     117.715
  N     -157.362    -568.408     119.799
  C     -158.033    -569.313     119.002
  N     -157.377    -570.458     118.691
  N     -159.254    -569.139     118.554
  C     -159.773    -567.935     118.927
  C     -159.224    -566.961     119.707
  C     -157.892    -567.183     120.221
  O     -157.259    -566.433     120.940
  N     -160.078    -565.898     119.889
  C     -161.150    -566.239     119.190
  N     -161.015    -567.444     118.581
  O     -165.853    -567.303     121.390
  O     -167.188    -565.398     120.316
  H     -161.043    -570.414     116.873
  H     -165.874    -566.651     122.098
  H     -156.442    -568.614     120.131
  H     -162.068    -565.654     119.124
  H     -161.565    -568.128     116.698
  H     -162.339    -569.623     119.289
  H     -156.410    -570.640     118.961
  H     -164.085    -570.707     117.960
  H     -157.836    -571.123     118.079
  H     -164.867    -568.299     116.746
  H     -165.879    -569.293     118.877
  H     -164.643    -568.470     119.809
  P     -164.196    -571.272     115.464
  C     -162.584    -573.304     115.622
  O     -163.739    -572.643     116.141
  O     -163.579    -571.372     113.961
  O     -165.659    -571.014     115.437
  H     -164.248    -571.731     113.347
  H     -161.732    -573.135     116.304
  H     -162.339    -572.958     114.623
  H     -162.803    -574.387     115.594
  H     -169.756    -568.605     119.434
  H     -168.485    -568.169     118.317
  H     -169.432    -566.922     119.092

 3  4  5  6  7  8  9  10  11  12  23  26  30  31 0
 6-311+G(2d,p)
 ****
 33  35  36  37  38 0
 6-311+G(2d,p)
 ****
 1  2  13  14  15  16  17  18  19  20  21  22  24  25 0
 3-21G
 ****
 27  28  29  32  34  39  40  41  42  43  44  45  46  47  48  49 0
 3-21G
 ****


