%nproc=1
%NoSave
%Mem=1900MB
#P OB98/GEN NMR

erre ene a

0 1
  C      451.387    -150.146      51.815
  O      450.161    -149.622      52.284
  H      451.887    -149.381      51.215
  H      451.206    -151.020      51.185
  H      452.039    -150.419      52.648
  P      449.305    -150.482      53.330
  C      449.349    -148.687      55.177
  O      449.736    -150.001      54.795
  C      448.091    -148.746      56.040
  O      448.330    -149.566      57.207
  C      447.649    -147.391      56.577
  O      447.028    -146.610      55.575
  C      446.742    -147.819      57.718
  O      445.434    -148.156      57.240
  C      447.465    -149.073      58.256
  N      448.224    -148.787      59.474
  C      448.186    -149.759      60.464
  O      447.570    -150.819      60.351
  N      448.838    -149.453      61.628
  C      449.385    -148.241      61.934
  O      449.735    -147.927      63.069
  C      449.451    -147.271      60.829
  C      448.864    -147.579      59.670
  O      449.320    -151.960      53.115
  O      447.824    -149.889      53.180
  H      447.285    -150.498      52.640
  H      444.994    -148.632      57.977
  H      448.778    -150.141      62.369
  H      449.943    -146.322      61.010
  H      448.872    -146.868      58.851
  H      446.743    -149.868      58.472
  H      446.630    -147.027      58.461
  H      448.513    -146.860      56.992
  H      447.288    -149.213      55.452
  H      449.142    -148.105      54.271
  H      450.174    -148.218      55.721
  P      447.070    -145.010      55.654
  C      448.169    -144.779      53.342
  O      448.278    -144.492      54.734
  O      447.049    -144.441      57.036
  O      445.776    -144.546      54.830
  H      445.271    -143.908      55.372
  H      449.024    -144.390      52.830
  H      447.282    -144.324      52.952
  H      448.119    -145.838      53.199

 6  7  8  9  10  11  12  13  14  15  16  27  31  32  33  34  35 0
 6-311+G(2d,p)
 ****
 36  37 0
 6-311+G(2d,p)
 ****
 1  2  3  4  5  17  18  19  20  21  22  23  24  25 0
 3-21G
 ****
 26  28  29  30  38  39  40  41  42  43  44  45 0
 3-21G
 ****


