%nproc=1
%NoSave
%Mem=1900MB
#P OB98/GEN NMR

erre ene a

0 1
  C       49.117    -146.970       6.453
  O       47.876    -146.990       7.120
  H       49.265    -147.939       5.967
  H       49.931    -146.816       7.165
  H       49.132    -146.189       5.690
  P       47.415    -145.704       7.962
  C       44.988    -145.469       7.161
  O       46.313    -144.969       7.044
  C       44.634    -146.370       5.977
  O       45.524    -147.519       5.958
  C       43.194    -146.902       6.014
  O       42.585    -146.739       4.731
  C       43.368    -148.382       6.312
  O       42.270    -149.174       5.865
  C       44.710    -148.658       5.628
  N       45.304    -149.913       6.071
  C       46.196    -150.520       5.182
  O       46.448    -149.991       4.099
  N       46.739    -151.733       5.516
  C       46.384    -152.314       6.619
  N       46.937    -153.529       6.876
  C       45.423    -151.722       7.573
  C       44.930    -150.530       7.241
  O       48.531    -144.832       8.429
  O       46.535    -146.292       9.162
  H       42.138    -149.009       4.906
  H       46.516    -145.635       9.896
  H       45.157    -152.249       8.476
  H       44.217    -150.017       7.878
  H       44.596    -148.691       4.537
  H       43.466    -148.524       7.396
  H       42.575    -146.413       6.765
  H       44.829    -145.816       5.050
  H       47.585    -153.901       6.192
  H       44.297    -144.620       7.216
  H       46.719    -154.085       7.688
  H       44.918    -146.051       8.085
  P       42.804    -145.318       4.018
  C       43.565    -146.308       1.744
  O       43.905    -145.507       2.866
  O       43.557    -144.456       5.137
  O       41.533    -144.667       3.587
  H       42.962    -143.763       5.477
  H       44.392    -146.341       1.066
  H       42.715    -145.887       1.249
  H       43.332    -147.300       2.071

 6  7  8  9  10  11  12  13  14  15  16  26  30  31  32  33  35 0
 6-311+G(2d,p)
 ****
 37  38 0
 6-311+G(2d,p)
 ****
 1  2  3  4  5  17  18  19  20  21  22  23  24  25 0
 3-21G
 ****
 27  28  29  34  36  39  40  41  42  43  44  45  46 0
 3-21G
 ****


