%nproc=1
%NoSave
%Mem=1900MB
#P OB98/GEN NMR

erre ene a

0 1
  C     -684.827    1122.467     106.159
  O     -684.856    1121.046     106.104
  H     -684.534    1122.766     107.161
  H     -685.818    1122.869     105.947
  H     -684.100    1122.845     105.446
  P     -685.308    1120.391     104.707
  C     -687.876    1120.506     105.044
  O     -686.739    1121.066     104.405
  C     -689.137    1120.735     104.199
  O     -689.399    1122.145     104.081
  C     -689.050    1120.205     102.795
  O     -689.360    1118.807     102.764
  C     -690.131    1121.014     102.098
  O     -691.426    1120.443     102.359
  C     -690.007    1122.384     102.787
  N     -690.151    1126.391      99.568
  C     -691.110    1125.500      99.948
  N     -690.989    1124.444     100.754
  C     -689.717    1124.317     101.233
  C     -688.636    1125.144     100.923
  C     -688.885    1126.219     100.046
  N     -687.915    1127.116      99.676
  N     -687.498    1124.705     101.561
  C     -687.896    1123.686     102.280
  N     -689.214    1123.380     102.086
  O     -685.250    1118.909     104.642
  O     -684.347    1121.156     103.684
  H     -691.559    1120.458     103.326
  H     -684.264    1122.094     103.928
  H     -692.093    1125.685      99.543
  H     -687.265    1123.129     102.977
  H     -690.989    1122.836     102.973
  H     -690.010    1121.034     101.006
  H     -688.083    1120.396     102.323
  H     -689.979    1120.291     104.733
  H     -688.009    1120.954     106.039
  H     -688.135    1127.738      98.924
  H     -686.966    1126.916      99.927
  H     -687.701    1119.443     105.162
  P     -688.621    1117.803     101.755
  C     -690.399    1118.580     100.077
  O     -689.010    1118.326     100.288
  O     -688.872    1116.355     102.025
  O     -687.080    1118.208     101.874
  H     -686.507    1117.476     101.505
  H     -690.551    1118.922      99.075
  H     -690.733    1119.329     100.764
  H     -690.954    1117.679     100.234

 6  7  8  9  10  11  12  13  14  15  25  28  32  33  34  35 0
 6-311+G(2d,p)
 ****
 36  39  40 0
 6-311+G(2d,p)
 ****
 1  2  3  4  5  16  17  18  19  20  21  22  23  24 0
 3-21G
 ****
 26  27  29  30  31  37  38  41  42  43  44  45  46  47 0
 3-21G
 ****
 48 0
 3-21G
 ****


