%nproc=1
%NoSave
%Mem=1900MB
#P OB98/GEN NMR

erre ene a

0 1
  C      211.709    -648.387     491.109
  O      210.560    -648.937     491.755
  P      210.097    -648.446     493.217
  C      211.072    -650.321     494.680
  O      211.144    -648.945     494.347
  C      212.379    -650.872     495.289
  O      212.183    -652.212     495.826
  C      213.560    -650.953     494.300
  O      214.747    -650.740     495.085
  C      213.477    -652.407     493.834
  O      214.680    -652.872     493.240
  C      213.095    -653.097     495.137
  N      213.831    -658.162     495.328
  C      214.569    -657.126     495.790
  N      214.295    -655.812     495.730
  C      213.095    -655.600     495.164
  C      212.236    -656.550     494.660
  C      212.641    -657.903     494.746
  N      211.900    -658.939     494.241
  N      211.098    -655.958     494.130
  C      211.294    -654.666     494.307
  N      212.482    -654.400     494.931
  O      208.658    -648.748     493.546
  O      210.317    -646.852     493.189
  H      215.364    -652.886     493.922
  H      209.541    -646.412     493.569
  H      215.522    -657.409     496.252
  H      210.606    -653.869     493.972
  H      213.965    -653.241     495.780
  H      212.683    -652.491     493.079
  H      213.489    -650.231     493.483
  H      212.635    -650.239     496.142
  H      210.812    -650.910     493.780
  H      212.339    -659.864     494.269
  H      211.081    -658.748     493.685
  H      210.246    -650.465     495.409
  P      215.596    -649.396     494.939
  C      216.492    -650.030     492.624
  O      215.731    -649.103     493.367
  O      216.898    -649.414     495.681
  O      214.634    -648.226     495.461
  H      215.159    -647.438     495.691
  H      217.572    -649.864     492.801
  H      216.287    -649.889     491.555
  H      216.239    -651.062     492.895
  H      211.837    -648.850     490.153
  H      212.576    -648.565     491.710
  H      211.575    -647.333     490.980

 3  4  5  6  7  8  9  10  11  12  22  25  29  30  31  32 0
 6-311+G(2d,p)
 ****
 33  36  37 0
 6-311+G(2d,p)
 ****
 1  2  13  14  15  16  17  18  19  20  21  23  24  26 0
 3-21G
 ****
 27  28  34  35  38  39  40  41  42  43  44  45  46  47  48 0
 3-21G
 ****


