%nproc=1
%NoSave
%Mem=1900MB
#P OB98/GEN NMR

erre ene a

0 1
  C      163.268     201.549    -197.689
  O      162.581     201.800    -198.899
  H      164.312     201.851    -197.808
  H      163.237     200.481    -197.452
  H      162.822     202.126    -196.874
  P      161.037     201.363    -198.944
  C      161.713     199.225    -200.250
  O      160.883     200.378    -200.203
  C      161.923     198.772    -201.693
  O      160.671     198.364    -202.285
  C      162.516     199.839    -202.605
  O      163.929     199.883    -202.485
  C      162.055     199.352    -203.970
  O      162.904     198.285    -204.451
  C      160.643     198.827    -203.665
  N      156.976     200.400    -206.762
  C      157.931     199.419    -206.937
  N      157.931     198.775    -208.127
  N      158.821     199.099    -206.035
  C      158.744     199.860    -204.916
  C      157.845     200.863    -204.622
  C      156.831     201.166    -205.613
  O      155.906     201.967    -205.482
  N      158.075     201.389    -203.378
  C      159.132     200.731    -202.935
  N      159.577     199.796    -203.836
  O      160.285     202.695    -199.423
  O      160.476     200.862    -197.656
  H      163.815     198.618    -204.539
  H      159.433     202.761    -198.952
  H      156.294     200.581    -207.479
  H      159.604     200.883    -201.972
  H      160.384     197.963    -204.291
  H      162.101     200.143    -204.718
  H      157.479     199.163    -208.945
  H      162.070     200.822    -202.403
  H      158.679     198.110    -208.282
  H      162.570     197.886    -201.669
  H      161.233     198.422    -199.682
  H      162.681     199.456    -199.788
  P      164.622     201.302    -202.220
  C      165.436     202.019    -204.583
  O      165.788     201.495    -203.309
  O      165.426     201.060    -200.855
  O      163.674     202.448    -202.086
  H      164.958     201.498    -200.115
  H      166.311     202.089    -205.194
  H      165.007     202.992    -204.462
  H      164.725     201.371    -205.051

 6  7  8  9  10  11  12  13  14  15  26  29  33  34 0
 6-311+G(2d,p)
 ****
 36  38  39  40  41 0
 6-311+G(2d,p)
 ****
 1  2  3  4  5  16  17  18  19  20  21  22  23  24  25 0
 3-21G
 ****
 27  28  30  31  32  35  37  42  43  44  45  46  47 0
 3-21G
 ****
 48  49 0
 3-21G
 ****


