%nproc=1
%NoSave
%Mem=1900MB
#P OB98/GEN NMR

erre ene a

0 1
  C      373.673    -891.520    -422.948
  O      373.362    -891.810    -424.297
  H      373.182    -890.580    -422.667
  H      374.750    -891.400    -422.815
  H      373.307    -892.320    -422.297
  P      374.089    -893.050    -424.998
  C      372.319    -894.930    -424.806
  O      372.913    -893.940    -425.632
  C      371.104    -895.530    -425.492
  O      370.095    -894.520    -425.715
  C      371.411    -896.120    -426.870
  O      372.073    -897.360    -426.747
  C      370.027    -896.170    -427.485
  O      369.295    -897.300    -427.020
  C      369.408    -894.850    -426.944
  N      369.481    -893.750    -427.912
  C      368.294    -893.410    -428.539
  O      367.243    -894.000    -428.270
  N      368.315    -892.400    -429.477
  C      369.425    -891.790    -429.744
  N      369.385    -890.810    -430.690
  C      370.712    -892.120    -429.097
  C      370.665    -893.110    -428.198
  O      375.064    -893.820    -424.154
  O      374.791    -892.410    -426.286
  H      369.466    -897.350    -426.062
  H      375.690    -892.100    -426.061
  H      371.610    -891.580    -429.347
  H      371.567    -893.420    -427.668
  H      368.352    -895.010    -426.683
  H      370.080    -896.220    -428.572
  H      372.025    -895.410    -427.449
  H      370.668    -896.310    -424.833
  H      368.488    -890.620    -431.114
  H      372.022    -894.440    -423.872
  H      370.168    -890.210    -430.907
  H      373.039    -895.720    -424.560
  P      372.681    -898.090    -428.045
  C      374.645    -896.420    -428.314
  O      374.255    -897.770    -428.012
  O      371.982    -897.790    -429.316
  O      372.638    -899.650    -427.630
  H      371.696    -900.000    -427.668
  H      375.710    -896.336    -428.259
  H      374.198    -895.753    -427.607
  H      374.317    -896.166    -429.300

 6  7  8  9  10  11  12  13  14  15  16  26  30  31  32  33  35 0
 6-311+G(2d,p)
 ****
 37  38 0
 6-311+G(2d,p)
 ****
 1  2  3  4  5  17  18  19  20  21  22  23  24  25 0
 3-21G
 ****
 27  28  29  34  36  39  40  41  42  43  44  45  46 0
 3-21G
 ****


