%nproc=1
%NoSave
%Mem=1900MB
#P OB98/GEN NMR

erre ene a

0 1
  C       -2.167     -61.747      91.208
  O       -3.347     -60.984      91.074
  H       -1.440     -61.173      91.789
  H       -1.744     -61.946      90.219
  H       -2.367     -62.689      91.726
  P       -4.649     -61.743      90.527
  C       -4.585     -61.239      87.987
  O       -4.337     -62.186      89.012
  C       -4.156     -61.799      86.629
  O       -2.715     -61.972      86.631
  C       -4.789     -63.156      86.294
  O       -5.096     -63.190      84.897
  C       -3.677     -64.148      86.596
  O       -3.806     -65.359      85.852
  C       -2.439     -63.331      86.242
  N        1.464     -66.492      85.825
  C        0.494     -66.147      84.905
  N        0.569     -66.737      83.694
  N       -0.469     -65.295      85.153
  C       -0.397     -64.754      86.394
  C        0.510     -65.018      87.395
  C        1.553     -65.984      87.118
  O        2.427     -66.349      87.899
  N        0.226     -64.292      88.525
  C       -0.848     -63.593      88.207
  N       -1.259     -63.835      86.924
  O       -5.716     -60.560      90.360
  O       -5.174     -62.830      91.407
  H       -3.181     -66.011      86.240
  H       -6.461     -60.698      90.977
  H        2.175     -67.164      85.586
  H       -1.370     -62.909      88.864
  H       -2.222     -63.343      85.165
  H       -3.687     -64.400      87.663
  H        1.309     -67.365      83.419
  H       -5.692     -63.363      86.870
  H       -0.111     -66.471      82.990
  H       -4.386     -61.057      85.856
  H       -4.016     -60.326      88.200
  H       -5.653     -60.994      87.967
  P       -6.314     -62.270      84.398
  C       -8.112     -64.137      84.344
  O       -7.685     -62.915      84.933
  O       -6.358     -62.545      82.821
  O       -6.135     -60.817      84.693
  H       -6.031     -61.763      82.339
  H       -9.032     -64.447      84.794
  H       -7.367     -64.888      84.502
  H       -8.259     -63.995      83.294

 6  7  8  9  10  11  12  13  14  15  26  29  33  34 0
 6-311+G(2d,p)
 ****
 36  38  39  40  41 0
 6-311+G(2d,p)
 ****
 1  2  3  4  5  16  17  18  19  20  21  22  23  24  25 0
 3-21G
 ****
 27  28  30  31  32  35  37  42  43  44  45  46  47 0
 3-21G
 ****
 48  49 0
 3-21G
 ****


