%nproc=1
%NoSave
%Mem=1900MB
#P OB98/GEN NMR

erre ene a

0 1
  C     -608.736     124.582    -618.117
  O     -609.537     123.765    -617.287
  H     -608.827     125.619    -617.781
  H     -609.068     124.524    -619.155
  H     -607.687     124.284    -618.043
  P     -609.635     122.202    -617.623
  C     -612.105     122.360    -616.846
  O     -610.880     121.643    -616.773
  C     -613.187     121.511    -617.510
  O     -612.826     121.233    -618.878
  C     -613.412     120.157    -616.852
  O     -614.131     120.303    -615.644
  C     -614.142     119.426    -617.963
  O     -615.525     119.814    -618.018
  C     -613.382     119.936    -619.213
  N     -612.335     119.025    -619.670
  C     -612.595     118.319    -620.849
  O     -613.665     118.476    -621.437
  N     -611.640     117.448    -621.315
  C     -610.506     117.321    -620.691
  N     -609.607     116.448    -621.213
  C     -610.178     118.072    -619.466
  C     -611.129     118.885    -619.004
  O     -608.371     121.409    -617.471
  O     -610.180     122.166    -619.128
  H     -615.925     119.273    -618.726
  H     -609.439     122.101    -619.758
  H     -609.224     117.938    -618.978
  H     -610.968     119.475    -618.105
  H     -614.077     120.092    -620.050
  H     -614.122     118.336    -617.831
  H     -612.453     119.656    -616.677
  H     -614.113     122.102    -617.525
  H     -609.869     115.969    -622.062
  H     -611.921     123.263    -617.431
  H     -608.647     116.386    -620.903
  H     -612.432     122.665    -615.840
  P     -613.391     120.379    -614.219
  C     -614.833     118.355    -613.579
  O     -614.361     119.636    -613.183
  O     -612.958     121.750    -613.811
  O     -612.179     119.350    -614.371
  H     -611.451     119.754    -614.911
  H     -615.468     117.957    -612.815
  H     -614.001     117.699    -613.729
  H     -615.386     118.445    -614.491

 6  7  8  9  10  11  12  13  14  15  16  26  30  31  32  33  35 0
 6-311+G(2d,p)
 ****
 37  38 0
 6-311+G(2d,p)
 ****
 1  2  3  4  5  17  18  19  20  21  22  23  24  25 0
 3-21G
 ****
 27  28  29  34  36  39  40  41  42  43  44  45  46 0
 3-21G
 ****


