%nproc=1
%NoSave
%Mem=1900MB
#P OB98/GEN NMR

erre ene a

0 1
  C      315.324    -108.144     -69.746
  O      315.428    -107.877     -68.361
  H      315.869    -109.069     -69.960
  H      315.764    -107.334     -70.318
  H      314.276    -108.285     -70.030
  P      314.614    -106.611     -67.805
  C      314.462    -107.588     -65.404
  O      314.922    -106.522     -66.234
  C      315.003    -107.450     -63.987
  O      316.450    -107.677     -64.012
  C      314.759    -106.075     -63.348
  O      314.531    -106.271     -61.947
  C      316.106    -105.376     -63.516
  O      316.282    -104.305     -62.595
  C      317.046    -106.561     -63.308
  N      321.386    -104.290     -62.117
  C      320.225    -104.445     -61.385
  N      320.200    -103.912     -60.145
  N      319.162    -105.074     -61.834
  C      319.325    -105.585     -63.085
  C      320.410    -105.497     -63.914
  C      321.577    -104.782     -63.410
  O      322.624    -104.593     -64.018
  N      320.174    -106.124     -65.112
  C      318.953    -106.579     -65.005
  N      318.381    -106.281     -63.787
  O      313.101    -107.117     -67.871
  O      314.815    -105.333     -68.563
  H      316.246    -104.683     -61.686
  H      312.685    -106.843     -68.712
  H      322.165    -103.789     -61.724
  H      318.424    -107.146     -65.766
  H      317.141    -106.840     -62.251
  H      316.191    -104.974     -64.533
  H      320.998    -103.457     -59.714
  H      313.927    -105.515     -63.786
  H      319.372    -104.051     -59.578
  H      314.576    -108.251     -63.367
  H      314.806    -108.543     -65.834
  H      313.366    -107.584     -65.392
  P      313.035    -106.093     -61.391
  C      312.739    -107.848     -59.495
  O      313.027    -106.500     -59.832
  O      312.259    -107.321     -62.081
  O      312.397    -104.787     -61.721
  H      311.315    -107.094     -62.192
  H      312.770    -107.964     -58.432
  H      313.466    -108.491     -59.946
  H      311.764    -108.105     -59.853

 6  7  8  9  10  11  12  13  14  15  26  29  33  34 0
 6-311+G(2d,p)
 ****
 36  38  39  40  41 0
 6-311+G(2d,p)
 ****
 1  2  3  4  5  16  17  18  19  20  21  22  23  24  25 0
 3-21G
 ****
 27  28  30  31  32  35  37  42  43  44  45  46  47 0
 3-21G
 ****
 48  49 0
 3-21G
 ****


