%nproc=1
%NoSave
%Mem=1900MB
#P OB98/GEN NMR

erre ene a

0 1
  C      365.272     589.236     -35.527
  O      364.059     588.803     -34.943
  H      365.138     590.251     -35.900
  H      365.544     588.589     -36.364
  H      366.073     589.239     -34.782
  P      364.000     587.325     -34.322
  C      364.508     584.984     -35.289
  O      364.109     586.322     -35.570
  C      365.201     584.379     -36.502
  O      366.362     585.158     -36.855
  C      365.691     582.949     -36.286
  O      364.623     582.029     -36.446
  C      366.746     582.846     -37.376
  O      366.098     582.665     -38.654
  C      367.397     584.240     -37.310
  N      372.353     583.337     -36.692
  C      371.521     583.039     -37.761
  N      372.079     582.371     -38.792
  N      370.250     583.352     -37.804
  C      369.811     583.961     -36.674
  C      370.541     584.292     -35.547
  C      371.946     583.993     -35.537
  O      372.729     584.253     -34.615
  N      369.734     584.837     -34.576
  C      368.533     584.870     -35.129
  N      368.527     584.337     -36.397
  O      362.841     587.036     -33.417
  O      365.407     587.159     -33.578
  H      365.857     581.722     -38.712
  H      365.344     587.417     -32.641
  H      373.321     583.052     -36.719
  H      367.644     585.278     -34.658
  H      367.744     584.585     -38.292
  H      367.428     582.012     -37.239
  H      372.948     581.862     -38.685
  H      366.190     582.830     -35.312
  H      371.473     582.099     -39.554
  H      364.507     584.431     -37.348
  H      363.601     584.419     -35.041
  H      365.184     584.962     -34.423
  P      364.737     580.522     -35.889
  C      366.591     578.739     -36.133
  O      365.953     579.869     -36.708
  O      363.471     579.740     -35.937
  O      365.346     580.674     -34.423
  H      364.663     580.803     -33.717
  H      367.378     578.407     -36.778
  H      365.877     577.952     -36.007
  H      366.999     579.006     -35.181

 6  7  8  9  10  11  12  13  14  15  26  29  33  34 0
 6-311+G(2d,p)
 ****
 36  38  39  40  41 0
 6-311+G(2d,p)
 ****
 1  2  3  4  5  16  17  18  19  20  21  22  23  24  25 0
 3-21G
 ****
 27  28  30  31  32  35  37  42  43  44  45  46  47 0
 3-21G
 ****
 48  49 0
 3-21G
 ****


