%nproc=1
%NoSave
%Mem=1900MB
#P OB98/GEN NMR

erre ene a

0 1
  C      126.696    -181.360    1021.563
  O      126.137    -181.495    1020.257
  P      125.469    -180.252    1019.464
  C      127.507    -179.694    1017.963
  O      126.651    -179.244    1019.018
  C      127.813    -178.572    1016.963
  O      128.718    -177.604    1017.564
  C      128.511    -179.033    1015.676
  O      127.561    -179.590    1014.783
  C      129.159    -177.727    1015.208
  O      128.196    -176.908    1014.533
  C      129.570    -177.097    1016.533
  N      134.407    -175.453    1015.919
  C      133.204    -174.956    1015.488
  N      131.967    -175.459    1015.692
  C      132.020    -176.581    1016.452
  C      133.153    -177.185    1016.972
  C      134.387    -176.585    1016.671
  N      135.596    -177.093    1017.113
  N      132.818    -178.324    1017.675
  C      131.500    -178.362    1017.599
  N      130.975    -177.337    1016.882
  O      124.348    -179.599    1020.194
  O      124.971    -180.878    1018.068
  H      128.640    -176.070    1014.295
  H      124.212    -180.360    1017.747
  H      133.272    -174.041    1014.901
  H      130.876    -179.143    1018.058
  H      129.430    -175.997    1016.523
  H      129.995    -177.908    1014.517
  H      129.287    -179.770    1015.929
  H      126.880    -178.048    1016.738
  H      126.979    -180.523    1017.430
  H      136.457    -176.624    1016.830
  H      135.604    -177.973    1017.627
  H      128.424    -180.093    1018.406
  P      127.653    -181.141    1014.391
  C      125.709    -182.145    1015.733
  O      127.120    -181.985    1015.637
  O      128.964    -181.586    1013.825
  O      126.457    -181.320    1013.320
  H      126.708    -182.032    1012.691
  H      125.271    -181.240    1016.155
  H      125.504    -183.005    1016.393
  H      125.257    -182.333    1014.758
  H      127.078    -182.306    1021.887
  H      125.939    -181.029    1022.243
  H      127.491    -180.644    1021.538

 3  4  5  6  7  8  9  10  11  12  22  25  29  30  31  32 0
 6-311+G(2d,p)
 ****
 33  36  37 0
 6-311+G(2d,p)
 ****
 1  2  13  14  15  16  17  18  19  20  21  23  24  26 0
 3-21G
 ****
 27  28  34  35  38  39  40  41  42  43  44  45  46  47  48 0
 3-21G
 ****


