%nproc=1
%NoSave
%Mem=1900MB
#P OB98/GEN NMR

erre ene a

0 1
  C      197.139    -667.660    -253.236
  O      197.198    -667.177    -254.564
  H      196.301    -667.176    -252.725
  H      198.060    -667.407    -252.703
  H      196.981    -668.741    -253.221
  P      198.245    -667.840    -255.578
  C      196.570    -669.066    -257.119
  O      197.580    -669.197    -256.122
  C      197.024    -669.745    -258.404
  O      198.238    -669.131    -258.894
  C      197.345    -671.225    -258.245
  O      196.165    -672.004    -258.169
  C      198.192    -671.472    -259.487
  O      197.363    -671.658    -260.640
  C      198.987    -670.150    -259.589
  N      200.342    -670.264    -259.050
  C      201.262    -670.971    -259.826
  O      200.968    -671.522    -260.888
  N      202.528    -671.069    -259.308
  C      202.929    -670.628    -258.079
  O      204.057    -670.820    -257.634
  C      201.911    -669.913    -257.298
  C      200.690    -669.763    -257.811
  O      199.640    -667.987    -255.067
  O      198.189    -666.880    -256.858
  H      196.799    -672.440    -260.452
  H      198.990    -666.322    -256.878
  H      203.199    -671.592    -259.852
  H      202.198    -669.534    -256.330
  H      199.925    -669.242    -257.249
  H      199.061    -669.834    -260.636
  H      198.811    -672.356    -259.391
  H      197.965    -671.380    -257.354
  H      196.242    -669.597    -259.163
  H      196.393    -668.002    -257.304
  H      195.644    -669.517    -256.743
  P      196.220    -673.482    -257.559
  C      196.724    -672.243    -255.365
  O      196.984    -673.405    -256.150
  O      196.719    -674.533    -258.493
  O      194.707    -673.772    -257.134
  H      194.377    -674.547    -257.629
  H      197.282    -672.296    -254.453
  H      195.679    -672.190    -255.141
  H      197.016    -671.371    -255.911

 6  7  8  9  10  11  12  13  14  15  16  26  31  32  33  34  35 0
 6-311+G(2d,p)
 ****
 36  37 0
 6-311+G(2d,p)
 ****
 1  2  3  4  5  17  18  19  20  21  22  23  24  25 0
 3-21G
 ****
 27  28  29  30  38  39  40  41  42  43  44  45 0
 3-21G
 ****


