%nproc=1
%NoSave
%Mem=1900MB
#P OB98/GEN NMR

erre ene a

0 1
  C     1673.867      84.407    1455.510
  O     1675.070      85.144    1455.304
  P     1675.357      85.723    1453.837
  C     1674.419      88.188    1454.078
  O     1674.243      86.867    1453.590
  C     1675.021      89.072    1452.988
  O     1674.079      89.258    1451.922
  C     1675.410      90.492    1453.454
  O     1676.614      90.498    1454.203
  C     1675.459      91.225    1452.130
  O     1676.722      90.973    1451.459
  C     1674.320      90.572    1451.340
  N     1673.092      91.368    1451.303
  C     1672.590      91.680    1450.042
  O     1673.148      91.296    1448.988
  N     1671.469      92.452    1450.016
  C     1670.832      93.010    1451.120
  O     1669.856      93.703    1451.015
  C     1671.430      92.662    1452.387
  C     1672.514      91.889    1452.472
  O     1674.880      84.495    1452.928
  O     1676.771      86.164    1453.650
  H     1674.201      83.935    1453.361
  H     1676.854      90.003    1451.434
  H     1671.079      92.669    1449.122
  H     1670.952      93.053    1453.315
  H     1672.954      91.638    1453.405
  H     1674.613      90.374    1450.279
  H     1675.353      92.307    1452.234
  H     1674.574      90.920    1454.064
  H     1675.926      88.574    1452.566
  H     1675.120      88.177    1454.951
  H     1673.457      88.589    1454.392
  P     1676.711      91.606    1455.375
  C     1675.852      89.798    1457.043
  O     1675.729      91.089    1456.576
  O     1675.959      92.851    1454.702
  O     1678.161      91.863    1455.791
  H     1675.157      92.591    1454.224
  H     1675.367      89.789    1458.055
  H     1676.886      89.490    1457.145
  H     1675.305      89.093    1456.414
  H     1673.815      84.087    1456.530
  H     1673.858      83.552    1454.867
  H     1673.025      85.029    1455.287

 3  4  5  6  7  8  9  10  11  12  13  24  28  29  30  31  32 0
 6-311+G(2d,p)
 ****
 33  34 0
 6-311+G(2d,p)
 ****
 1  2  14  15  16  17  18  19  20  21  22  23  25  26  27 0
 3-21G
 ****
 35  36  37  38  39  40  41  42  43  44  45 0
 3-21G
 ****


