%nproc=1
%NoSave
%Mem=1900MB
#P OB98/GEN NMR

erre ene a

0 1
  C     -195.914     209.655      71.259
  O     -195.013     209.198      72.246
  P     -195.406     208.024      73.265
  C     -195.453     209.554      75.330
  O     -194.810     208.464      74.688
  C     -194.521     210.763      75.444
  O     -193.462     210.469      76.398
  C     -193.856     211.186      74.129
  O     -193.725     212.609      74.183
  C     -192.496     210.523      74.222
  O     -191.541     211.105      73.345
  C     -192.203     210.677      75.721
  N     -191.175     209.749      76.175
  C     -189.858     210.215      76.162
  O     -189.598     211.331      75.709
  N     -188.858     209.388      76.611
  C     -189.140     208.166      76.943
  N     -188.111     207.394      77.384
  C     -190.496     207.596      76.851
  C     -191.458     208.437      76.478
  O     -195.031     206.651      72.823
  O     -196.979     208.220      73.475
  H     -191.631     210.682      72.463
  H     -197.478     207.869      72.694
  H     -190.674     206.557      77.084
  H     -192.484     208.110      76.381
  H     -191.873     211.698      75.948
  H     -192.584     209.462      73.961
  H     -194.412     210.881      73.241
  H     -195.104     211.600      75.856
  H     -187.198     207.830      77.446
  H     -195.740     209.235      76.334
  H     -188.234     206.461      77.743
  H     -196.369     209.820      74.791
  P     -194.912     213.574      73.705
  C     -193.723     214.240      71.540
  O     -194.258     214.695      72.771
  O     -195.781     214.100      74.803
  O     -195.756     212.685      72.673
  H     -196.627     213.096      72.527
  H     -193.566     215.099      70.881
  H     -194.402     213.537      71.052
  H     -192.760     213.750      71.721
  H     -195.454     210.437      70.691
  H     -196.799     210.029      71.730
  H     -196.171     208.845      70.608

 3  4  5  6  7  8  9  10  11  12  13  23  27  28  29  30  32 0
 6-311+G(2d,p)
 ****
 34  35 0
 6-311+G(2d,p)
 ****
 1  2  14  15  16  17  18  19  20  21  22  24  25  26 0
 3-21G
 ****
 31  33  36  37  38  39  40  41  42  43  44  45  46 0
 3-21G
 ****


