%nproc=1
%NoSave
%Mem=1900MB
#P OB98/GEN NMR

erre ene a

0 1
  C     -732.692    -246.270    -423.095
  O     -733.105    -244.984    -422.687
  H     -732.802    -246.354    -424.181
  H     -733.302    -247.046    -422.627
  H     -731.639    -246.430    -422.840
  P     -733.176    -244.675    -421.118
  C     -735.078    -246.356    -420.617
  O     -734.684    -244.994    -420.681
  C     -736.241    -246.511    -419.641
  O     -735.776    -246.407    -418.279
  C     -737.303    -245.436    -419.794
  O     -738.108    -245.672    -420.935
  C     -738.023    -245.530    -418.456
  O     -738.949    -246.624    -418.436
  C     -736.839    -245.791    -417.502
  N     -736.363    -244.584    -416.830
  C     -737.248    -244.018    -415.902
  O     -738.340    -244.536    -415.685
  N     -736.863    -242.860    -415.264
  C     -735.704    -242.321    -415.518
  N     -735.389    -241.183    -414.856
  C     -734.743    -242.903    -416.478
  C     -735.137    -244.028    -417.094
  O     -732.668    -243.337    -420.666
  O     -732.352    -245.883    -420.458
  H     -739.288    -246.675    -417.527
  H     -731.404    -245.645    -420.382
  H     -733.792    -242.437    -416.650
  H     -734.492    -244.510    -417.816
  H     -737.125    -246.535    -416.730
  H     -738.574    -244.622    -418.231
  H     -736.837    -244.445    -419.853
  H     -736.678    -247.513    -419.769
  H     -736.079    -240.814    -414.214
  H     -734.217    -246.926    -420.260
  H     -734.492    -240.731    -414.907
  H     -735.360    -246.726    -421.604
  P     -738.752    -244.450    -421.748
  C     -740.252    -243.840    -419.745
  O     -740.205    -244.220    -421.108
  O     -738.720    -244.592    -423.240
  O     -737.927    -243.187    -421.210
  H     -737.015    -243.165    -421.586
  H     -741.271    -243.720    -419.443
  H     -739.730    -242.915    -419.614
  H     -739.790    -244.598    -419.147

 6  7  8  9  10  11  12  13  14  15  16  26  30  31  32  33  35 0
 6-311+G(2d,p)
 ****
 37  38 0
 6-311+G(2d,p)
 ****
 1  2  3  4  5  17  18  19  20  21  22  23  24  25 0
 3-21G
 ****
 27  28  29  34  36  39  40  41  42  43  44  45  46 0
 3-21G
 ****


