%nproc=1
%NoSave
%Mem=1900MB
#P OB98/GEN NMR

erre ene a

0 1
  C       60.021      86.893     580.840
  O       58.880      86.870     581.670
  P       57.413      86.668     581.062
  C       57.662      84.215     580.312
  O       57.544      85.571     579.892
  C       57.386      83.269     579.137
  O       56.027      83.503     578.660
  C       58.349      83.489     577.953
  O       59.006      82.306     577.497
  C       57.465      84.182     576.928
  O       57.939      84.084     575.600
  C       56.098      83.555     577.222
  N       54.995      84.312     576.634
  C       54.874      84.285     575.250
  O       55.619      83.661     574.499
  N       53.881      85.060     574.719
  C       53.092      85.930     575.409
  O       52.288      86.670     574.857
  C       53.292      85.948     576.866
  C       54.201      85.135     577.408
  O       56.712      87.919     580.651
  O       56.657      85.842     582.207
  H       57.316      84.561     575.020
  H       57.060      84.983     582.426
  H       53.782      85.050     573.717
  H       52.688      86.636     577.437
  H       54.372      85.124     578.480
  H       56.044      82.530     576.857
  H       57.436      85.249     577.179
  H       59.172      84.157     578.233
  H       57.452      82.245     579.513
  H       56.935      84.026     581.103
  H       58.660      84.043     580.733
  P       60.591      82.124     577.375
  C       60.806      79.966     578.808
  O       61.103      81.339     578.671
  O       61.351      83.366     577.048
  O       60.753      81.040     576.208
  H       61.598      81.183     575.746
  H       60.757      79.723     579.873
  H       61.606      79.377     578.351
  H       59.850      79.713     578.340
  H       60.895      87.038     581.440
  H       59.934      87.695     580.136
  H       60.099      85.964     580.315

 3  4  5  6  7  8  9  10  11  12  13  23  28  29  30  31  32 0
 6-311+G(2d,p)
 ****
 33  34 0
 6-311+G(2d,p)
 ****
 1  2  14  15  16  17  18  19  20  21  22  24  25  26  27 0
 3-21G
 ****
 35  36  37  38  39  40  41  42  43  44  45 0
 3-21G
 ****


