%nproc=1
%NoSave
%Mem=1900MB
#P OB98/GEN NMR

erre ene a

0 1
  C       24.956    -360.280      72.781
  O       23.554    -360.139      72.870
  H       25.356    -360.444      73.787
  H       25.396    -359.365      72.375
  H       25.221    -361.133      72.152
  P       22.745    -360.091      71.483
  C       21.559    -357.959      70.596
  O       22.782    -358.565      70.985
  C       20.826    -357.409      71.817
  O       21.765    -356.783      72.727
  C       19.772    -356.355      71.496
  O       18.541    -356.941      71.093
  C       19.642    -355.670      72.846
  O       18.849    -356.487      73.732
  C       21.101    -355.632      73.322
  N       23.234    -351.359      75.035
  C       22.574    -352.362      75.725
  N       22.457    -352.196      77.059
  N       22.069    -353.425      75.156
  C       22.250    -353.452      73.814
  C       22.886    -352.523      73.023
  C       23.448    -351.354      73.660
  O       24.061    -350.450      73.101
  N       22.880    -352.902      71.703
  C       22.223    -354.043      71.691
  N       21.815    -354.421      72.950
  O       21.221    -360.295      71.937
  O       23.149    -361.111      70.470
  H       19.292    -357.352      73.789
  H       20.757    -360.819      71.255
  H       23.594    -350.554      75.522
  H       22.024    -354.637      70.812
  H       21.187    -355.732      74.411
  H       19.151    -354.698      72.783
  H       22.780    -351.377      77.554
  H       20.140    -355.631      70.753
  H       22.008    -352.931      77.590
  H       20.375    -358.258      72.349
  H       20.927    -358.709      70.100
  H       21.771    -357.148      69.885
  P       17.494    -356.010      70.306
  C       15.483    -355.495      71.871
  O       16.784    -355.113      71.434
  O       16.348    -357.042      69.875
  O       18.060    -355.274      69.140
  H       15.861    -356.692      69.107
  H       15.142    -354.809      72.618
  H       15.521    -356.482      72.283
  H       14.809    -355.481      71.040

 6  7  8  9  10  11  12  13  14  15  26  29  33  34 0
 6-311+G(2d,p)
 ****
 36  38  39  40  41 0
 6-311+G(2d,p)
 ****
 1  2  3  4  5  16  17  18  19  20  21  22  23  24  25 0
 3-21G
 ****
 27  28  30  31  32  35  37  42  43  44  45  46  47 0
 3-21G
 ****
 48  49 0
 3-21G
 ****


