%nproc=1
%NoSave
%Mem=1900MB
#P OB98/GEN NMR

erre ene a

0 1
  C       -2.473     430.294    -297.739
  O       -3.545     429.484    -297.294
  H       -1.632     429.649    -298.003
  H       -2.161     430.975    -296.943
  H       -2.773     430.865    -298.625
  P       -4.878     430.251    -296.833
  C       -4.383     429.867    -294.312
  O       -4.581     430.810    -295.356
  C       -3.343     430.378    -293.320
  O       -2.028     430.408    -293.925
  C       -3.612     431.783    -292.794
  O       -4.542     431.763    -291.726
  C       -2.220     432.205    -292.350
  O       -1.886     431.668    -291.052
  C       -1.328     431.583    -293.444
  N        1.761     435.223    -295.088
  C        1.795     434.482    -293.922
  N        2.771     434.798    -293.037
  N        0.947     433.528    -293.641
  C        0.009     433.349    -294.602
  C       -0.121     434.008    -295.808
  C        0.849     435.040    -296.115
  O        0.910     435.685    -297.158
  N       -1.189     433.526    -296.521
  C       -1.728     432.613    -295.736
  N       -1.042     432.481    -294.553
  O       -5.919     429.062    -296.571
  O       -5.411     431.248    -297.806
  H       -0.971     431.907    -290.834
  H       -6.822     429.382    -296.763
  H        2.456     435.932    -295.254
  H       -2.602     432.025    -295.976
  H       -0.362     431.251    -293.047
  H       -2.129     433.289    -292.267
  H        3.220     435.704    -293.046
  H       -3.953     432.444    -293.604
  H        2.788     434.274    -292.170
  H       -3.300     429.658    -292.491
  H       -4.032     428.924    -294.749
  H       -5.336     429.690    -293.800
  P       -6.042     432.249    -292.033
  C       -5.173     434.598    -291.320
  O       -5.972     433.840    -292.220
  O       -6.780     432.081    -290.620
  O       -6.729     431.495    -293.124
  H       -7.748     432.081    -290.749
  H       -5.232     435.635    -291.577
  H       -4.156     434.272    -291.385
  H       -5.530     434.457    -290.321

 6  7  8  9  10  11  12  13  14  15  26  29  33  34 0
 6-311+G(2d,p)
 ****
 36  38  39  40  41 0
 6-311+G(2d,p)
 ****
 1  2  3  4  5  16  17  18  19  20  21  22  23  24  25 0
 3-21G
 ****
 27  28  30  31  32  35  37  42  43  44  45  46  47 0
 3-21G
 ****
 48  49 0
 3-21G
 ****


