%nproc=1
%NoSave
%Mem=1900MB
#P OB98/GEN NMR

erre ene a

0 1
  C      434.315     149.134     231.728
  O      434.309     148.868     233.119
  H      434.831     148.316     231.218
  H      434.838     150.072     231.522
  H      433.287     149.189     231.353
  P      433.619     149.973     234.056
  C      432.224     148.279     235.410
  O      433.314     149.192     235.430
  C      432.061     147.608     236.782
  O      433.215     146.761     237.017
  C      431.969     148.611     237.934
  O      431.023     148.127     238.894
  C      433.361     148.594     238.538
  O      433.367     148.976     239.913
  C      433.793     147.146     238.284
  N      438.007     146.800     241.140
  C      436.698     146.781     241.461
  N      435.636     146.863     240.627
  C      436.037     146.928     239.351
  C      437.337     146.962     238.868
  C      438.357     146.904     239.835
  N      439.695     146.954     239.524
  N      437.343     147.078     237.488
  C      436.066     147.100     237.138
  N      435.242     147.026     238.232
  O      432.461     150.697     233.465
  O      434.875     150.886     234.453
  H      432.789     149.758     240.010
  H      435.651     150.349     234.685
  H      436.470     146.691     242.520
  H      435.691     147.184     236.122
  H      433.430     146.459     239.058
  H      434.012     149.292     237.993
  H      431.679     149.609     237.603
  H      431.185     146.951     236.746
  H      432.394     147.512     234.644
  H      440.369     146.888     240.278
  H      439.977     147.005     238.554
  H      431.317     148.835     235.151
  P      430.096     149.193     239.657
  C      427.824     148.883     238.458
  O      428.587     148.653     239.645
  O      430.271     150.623     239.248
  O      430.516     148.984     241.195
  H      430.521     149.851     241.639
  H      426.842     148.476     238.581
  H      428.305     148.410     237.628
  H      427.754     149.935     238.277

 6  7  8  9  10  11  12  13  14  15  25  28  32  33  34  35 0
 6-311+G(2d,p)
 ****
 36  39  40 0
 6-311+G(2d,p)
 ****
 1  2  3  4  5  16  17  18  19  20  21  22  23  24 0
 3-21G
 ****
 26  27  29  30  31  37  38  41  42  43  44  45  46  47 0
 3-21G
 ****
 48 0
 3-21G
 ****


