%nproc=1
%NoSave
%Mem=1900MB
#P OB98/GEN NMR

erre ene a

0 1
  C     -133.943    -260.048      61.659
  O     -133.052    -260.523      60.657
  P     -133.143    -259.863      59.193
  C     -132.780    -262.070      57.887
  O     -132.273    -260.788      58.207
  C     -131.798    -262.848      57.002
  O     -132.401    -264.126      56.651
  C     -131.421    -262.147      55.694
  O     -130.065    -262.507      55.393
  C     -132.344    -262.789      54.673
  O     -131.857    -262.651      53.344
  C     -132.374    -264.225      55.202
  N     -134.397    -266.768      51.247
  C     -133.200    -266.168      51.415
  N     -132.729    -265.505      52.497
  C     -133.645    -265.502      53.480
  C     -134.919    -266.045      53.447
  C     -135.298    -266.706      52.264
  N     -136.511    -267.327      52.100
  N     -135.576    -265.818      54.648
  C     -134.716    -265.150      55.389
  N     -133.527    -264.964      54.727
  O     -132.254    -258.538      59.348
  O     -134.521    -259.539      58.723
  H     -130.975    -263.069      53.298
  H     -132.826    -257.748      59.300
  H     -132.517    -266.224      50.559
  H     -134.902    -264.786      56.381
  H     -131.471    -264.788      54.920
  H     -133.336    -262.331      54.732
  H     -131.528    -261.055      55.725
  H     -130.906    -263.069      57.596
  H     -133.720    -261.946      57.333
  H     -136.653    -267.895      51.278
  H     -137.115    -267.451      52.916
  H     -132.993    -262.629      58.803
  P     -129.056    -261.315      55.039
  C     -129.417    -261.216      52.468
  O     -128.556    -261.558      53.540
  O     -127.771    -261.638      55.936
  O     -129.605    -259.945      55.330
  H     -127.298    -260.811      56.145
  H     -128.820    -260.877      51.619
  H     -130.117    -260.419      52.746
  H     -129.992    -262.103      52.177
  H     -133.767    -260.576      62.573
  H     -134.953    -260.208      61.344
  H     -133.780    -259.002      61.815

 3  4  5  6  7  8  9  10  11  12  22  25  29  30  31  32 0
 6-311+G(2d,p)
 ****
 33  36  37 0
 6-311+G(2d,p)
 ****
 1  2  13  14  15  16  17  18  19  20  21  23  24  26 0
 3-21G
 ****
 27  28  34  35  38  39  40  41  42  43  44  45  46  47  48 0
 3-21G
 ****


