%nproc=1
%NoSave
%Mem=1900MB
#P OB98/GEN NMR

erre ene a

0 1
  C      308.409      97.188    -847.722
  O      307.972      98.416    -847.179
  H      307.730      96.894    -848.525
  H      308.386      96.413    -846.946
  H      309.420      97.285    -848.128
  P      308.937      99.116    -846.094
  C      308.512     100.933    -844.243
  O      307.968     100.000    -845.160
  C      307.504     102.051    -843.959
  O      307.476     102.959    -845.100
  C      306.076     101.553    -843.731
  O      305.449     102.392    -842.751
  C      305.403     101.783    -845.080
  O      303.989     101.887    -844.969
  C      306.116     103.062    -845.552
  N      306.056     103.236    -847.013
  C      304.872     103.792    -847.521
  O      303.958     104.110    -846.758
  N      304.746     103.943    -848.887
  C      305.687     103.507    -849.669
  N      305.491     103.657    -851.011
  C      306.920     102.867    -849.172
  C      307.042     102.772    -847.851
  O      309.698     100.204    -846.985
  O      309.834      98.170    -845.371
  H      303.600     101.928    -845.868
  H      309.108     100.693    -847.588
  H      307.680     102.506    -849.871
  H      307.928     102.330    -847.398
  H      305.679     103.955    -845.088
  H      305.632     100.944    -845.763
  H      306.036     100.515    -843.410
  H      307.864     102.634    -843.101
  H      304.616     104.081    -851.302
  H      309.433     101.372    -844.648
  H      306.117     103.303    -851.708
  H      308.755     100.403    -843.311
  P      305.488     101.955    -841.208
  C      304.543     103.115    -839.095
  O      304.289     102.676    -840.422
  O      306.810     102.026    -840.542
  O      304.975     100.424    -841.275
  H      305.517      99.901    -840.649
  H      303.662     103.574    -838.696
  H      305.343     103.825    -839.101
  H      304.815     102.277    -838.488

 6  7  8  9  10  11  12  13  14  15  16  26  30  31  32  33  35 0
 6-311+G(2d,p)
 ****
 37  38 0
 6-311+G(2d,p)
 ****
 1  2  3  4  5  17  18  19  20  21  22  23  24  25 0
 3-21G
 ****
 27  28  29  34  36  39  40  41  42  43  44  45  46 0
 3-21G
 ****


