%nproc=1
%NoSave
%Mem=1900MB
#P OB98/GEN NMR

erre ene a

0 1
  C     -362.839    -147.115      93.524
  O     -361.672    -146.952      92.737
  P     -361.207    -145.462      92.373
  C     -358.819    -145.270      93.373
  O     -360.201    -144.960      93.517
  C     -357.953    -144.076      93.783
  O     -358.345    -142.906      93.016
  C     -358.069    -143.710      95.264
  O     -356.806    -143.218      95.733
  C     -359.037    -142.546      95.263
  O     -358.883    -141.738      96.429
  C     -358.657    -141.854      93.956
  N     -362.277    -138.549      95.180
  C     -361.204    -138.993      95.929
  N     -361.139    -138.558      97.205
  N     -360.274    -139.783      95.464
  C     -360.470    -140.143      94.170
  C     -361.486    -139.754      93.322
  C     -362.515    -138.889      93.853
  O     -363.503    -138.483      93.254
  N     -361.328    -140.296      92.077
  C     -360.247    -141.043      92.173
  N     -359.710    -141.010      93.433
  O     -362.534    -144.603      92.636
  O     -360.728    -145.285      90.972
  H     -357.926    -141.553      96.523
  H     -362.940    -144.351      91.788
  H     -362.973    -137.948      95.589
  H     -359.824    -141.645      91.376
  H     -357.757    -141.240      94.072
  H     -360.070    -142.914      95.240
  H     -361.862    -138.002      97.642
  H     -358.403    -144.530      95.911
  H     -360.390    -138.904      97.786
  H     -356.911    -144.298      93.518
  H     -358.617    -145.518      92.328
  H     -358.572    -146.141      93.985
  P     -356.039    -144.153      96.792
  C     -354.382    -145.107      95.028
  O     -355.427    -145.363      95.944
  O     -357.229    -144.832      97.617
  O     -355.080    -143.418      97.671
  H     -356.920    -145.085      98.506
  H     -353.487    -145.648      95.349
  H     -354.143    -144.041      94.953
  H     -354.682    -145.468      94.039
  H     -363.020    -148.158      93.682
  H     -363.675    -146.681      93.016
  H     -362.703    -146.630      94.468

 3  4  5  6  7  8  9  10  11  12  23  26  30  31 0
 6-311+G(2d,p)
 ****
 33  35  36  37  38 0
 6-311+G(2d,p)
 ****
 1  2  13  14  15  16  17  18  19  20  21  22  24  25 0
 3-21G
 ****
 27  28  29  32  34  39  40  41  42  43  44  45  46  47  48  49 0
 3-21G
 ****


