%nproc=1
%NoSave
%Mem=1900MB
#P OB98/GEN NMR

erre ene a

0 1
  C     -127.275      27.379     203.745
  O     -128.115      26.222     203.788
  P     -127.975      25.207     202.548
  C     -128.942      26.849     200.786
  O     -127.819      26.088     201.206
  C     -129.212      26.677     199.290
  O     -130.507      27.236     198.918
  C     -128.158      27.342     198.390
  O     -128.017      26.519     197.225
  C     -128.840      28.645     197.988
  O     -128.239      29.221     196.834
  C     -130.275      28.144     197.810
  N     -132.437      31.707     194.963
  C     -131.382      30.860     194.678
  N     -130.861      30.939     193.429
  N     -130.888      30.011     195.535
  C     -131.538      30.015     196.733
  C     -132.604      30.791     197.122
  C     -133.122      31.758     196.169
  O     -134.057      32.530     196.365
  N     -133.006      30.482     198.406
  C     -132.133      29.569     198.795
  N     -131.269      29.210     197.803
  O     -129.441      24.576     202.423
  O     -126.930      24.156     202.745
  H     -128.801      29.978     196.559
  H     -129.458      23.685     202.831
  H     -132.773      32.357     194.261
  H     -132.110      29.109     199.773
  H     -130.408      27.592     196.875
  H     -128.781      29.372     198.808
  H     -131.230      31.535     192.702
  H     -127.186      27.510     198.868
  H     -130.116      30.306     193.188
  H     -129.249      25.599     199.069
  H     -128.773      27.913     200.990
  H     -129.817      26.561     201.386
  P     -126.666      25.666     197.080
  C     -125.596      27.286     195.351
  O     -125.508      26.679     196.630
  O     -126.929      24.796     195.750
  O     -126.351      24.785     198.242
  H     -126.563      23.896     195.876
  H     -125.064      28.240     195.370
  H     -126.642      27.470     195.064
  H     -125.135      26.628     194.603
  H     -127.450      27.979     204.613
  H     -127.497      27.948     202.867
  H     -126.249      27.075     203.723

 3  4  5  6  7  8  9  10  11  12  23  26  30  31 0
 6-311+G(2d,p)
 ****
 33  35  36  37  38 0
 6-311+G(2d,p)
 ****
 1  2  13  14  15  16  17  18  19  20  21  22  24  25 0
 3-21G
 ****
 27  28  29  32  34  39  40  41  42  43  44  45  46  47  48  49 0
 3-21G
 ****


