%nproc=1
%NoSave
%Mem=1900MB
#P OB98/GEN NMR

erre ene a

0 1
  C     -275.892     447.296      48.108
  O     -277.134     447.280      48.822
  P     -277.043     447.322      50.426
  C     -276.332     444.839      50.725
  O     -275.987     446.208      50.894
  C     -275.308     443.947      51.424
  O     -273.992     444.071      50.824
  C     -275.113     444.289      52.894
  O     -276.205     443.825      53.673
  C     -273.784     443.589      53.179
  O     -273.987     442.177      53.382
  C     -273.014     443.821      51.866
  N     -268.453     445.349      53.599
  C     -269.106     444.170      53.697
  N     -270.321     443.845      53.208
  C     -270.867     444.883      52.551
  C     -270.318     446.142      52.369
  C     -269.052     446.368      52.933
  N     -268.387     447.573      52.847
  N     -271.170     446.943      51.642
  C     -272.227     446.194      51.416
  N     -272.089     444.931      51.928
  O     -278.453     446.730      50.888
  O     -276.807     448.689      50.975
  H     -273.109     441.773      53.529
  H     -279.011     447.443      51.262
  H     -268.593     443.386      54.244
  H     -273.116     446.510      50.879
  H     -272.443     442.934      51.562
  H     -273.282     443.975      54.068
  H     -275.000     445.374      53.025
  H     -275.634     442.906      51.321
  H     -276.378     444.590      49.658
  H     -267.522     447.671      53.348
  H     -268.864     448.362      52.429
  H     -277.338     444.678      51.124
  P     -277.183     444.923      54.314
  C     -275.923     444.941      56.552
  O     -276.261     445.681      55.393
  O     -278.126     444.013      55.227
  O     -277.877     445.797      53.328
  H     -277.611     443.368      55.754
  H     -275.271     445.555      57.182
  H     -275.395     444.017      56.281
  H     -276.828     444.696      57.115
  H     -276.085     447.265      47.056
  H     -275.308     446.444      48.389
  H     -275.355     448.191      48.346

 3  4  5  6  7  8  9  10  11  12  22  25  29  30  31  32 0
 6-311+G(2d,p)
 ****
 33  36  37 0
 6-311+G(2d,p)
 ****
 1  2  13  14  15  16  17  18  19  20  21  23  24  26 0
 3-21G
 ****
 27  28  34  35  38  39  40  41  42  43  44  45  46  47  48 0
 3-21G
 ****


