%nproc=1
%NoSave
%Mem=1900MB
#P OB98/GEN NMR

erre ene a

0 1
  C       19.037      47.743      12.678
  O       19.557      47.960      13.972
  P       18.676      47.686      15.280
  C       17.821      50.115      15.335
  O       17.462      48.741      15.250
  C       16.565      50.985      15.462
  O       15.798      50.882      14.222
  C       15.649      50.548      16.623
  O       15.295      51.598      17.524
  C       14.486      49.886      15.902
  O       13.300      49.810      16.670
  C       14.421      50.701      14.605
  N       13.635      50.039      13.567
  C       12.264      49.938      13.776
  O       11.677      50.375      14.762
  N       11.562      49.249      12.826
  C       12.095      48.565      11.775
  O       11.416      47.885      11.018
  C       13.555      48.675      11.627
  C       14.247      49.412      12.499
  O       19.432      47.657      16.565
  O       17.929      46.312      14.932
  H       12.690      49.198      16.219
  H       17.366      46.342      14.139
  H       10.567      49.168      12.966
  H       14.007      48.135      10.808
  H       15.324      49.512      12.415
  H       13.998      51.692      14.777
  H       14.781      48.855      15.668
  H       16.149      49.810      17.261
  H       16.889      52.023      15.584
  H       18.360      50.395      14.427
  H       18.499      50.271      16.181
  P       15.280      51.474      19.119
  C       12.686      51.615      19.231
  O       13.855      50.895      19.561
  O       15.722      52.694      19.856
  O       16.273      50.251      19.407
  H       16.690      50.369      20.281
  H       11.920      51.404      19.982
  H       12.320      51.280      18.256
  H       12.869      52.693      19.203
  H       19.782      47.985      11.949
  H       18.178      48.364      12.530
  H       18.756      46.716      12.574

 3  4  5  6  7  8  9  10  11  12  13  23  28  29  30  31  32 0
 6-311+G(2d,p)
 ****
 33  34 0
 6-311+G(2d,p)
 ****
 1  2  14  15  16  17  18  19  20  21  22  24  25  26  27 0
 3-21G
 ****
 35  36  37  38  39  40  41  42  43  44  45 0
 3-21G
 ****


