%nproc=1
%NoSave
%Mem=1900MB
#P OB98/GEN NMR

erre ene a

0 1
  C     -558.066      75.685     435.650
  O     -556.772      76.060     436.086
  P     -555.586      76.245     435.025
  C     -554.482      78.329     436.043
  O     -555.230      77.806     434.944
  C     -555.240      79.498     436.679
  O     -556.550      79.056     437.136
  C     -554.557      80.079     437.910
  O     -553.462      80.903     437.543
  C     -555.715      80.821     438.570
  O     -555.922      82.104     437.954
  C     -556.900      79.887     438.266
  N     -558.607      79.891     443.081
  C     -558.204      80.881     442.273
  N     -557.722      80.808     441.009
  C     -557.661      79.525     440.613
  C     -558.002      78.387     441.347
  C     -558.517      78.607     442.635
  N     -558.998      77.597     443.453
  N     -557.768      77.247     440.603
  C     -557.282      77.672     439.457
  N     -557.260      79.038     439.390
  O     -555.806      75.579     433.704
  O     -554.312      75.620     435.764
  H     -556.618      82.556     438.476
  H     -553.966      74.868     435.246
  H     -558.282      81.894     442.677
  H     -556.948      77.042     438.639
  H     -557.799      80.450     437.981
  H     -555.547      80.991     439.640
  H     -554.217      79.270     438.574
  H     -555.388      80.268     435.915
  H     -553.518      78.682     435.666
  H     -559.480      77.888     444.287
  H     -559.229      76.712     443.021
  H     -554.320      77.544     436.777
  P     -552.013      80.632     438.161
  C     -550.861      81.025     435.899
  O     -551.090      80.116     436.953
  O     -551.990      79.794     439.398
  O     -551.442      82.106     438.436
  H     -550.859      82.085     439.226
  H     -551.743      81.051     435.243
  H     -549.997      80.693     435.323
  H     -550.667      82.039     436.286
  H     -558.719      75.611     436.494
  H     -558.015      74.738     435.155
  H     -558.441      76.422     434.972

 3  4  5  6  7  8  9  10  11  12  22  25  29  30  31  32 0
 6-311+G(2d,p)
 ****
 33  36  37 0
 6-311+G(2d,p)
 ****
 1  2  13  14  15  16  17  18  19  20  21  23  24  26 0
 3-21G
 ****
 27  28  34  35  38  39  40  41  42  43  44  45  46  47  48 0
 3-21G
 ****


