%nproc=1
%NoSave
%Mem=1900MB
#P OB98/GEN NMR

erre ene a

0 1
  C     -818.947     404.967     272.595
  O     -818.883     403.637     272.079
  P     -819.865     402.532     272.707
  C     -820.417     401.149     270.569
  O     -819.764     401.195     271.831
  C     -820.308     399.754     269.952
  O     -818.957     399.483     269.509
  C     -820.650     398.628     270.911
  O     -822.045     398.428     271.003
  C     -819.980     397.437     270.218
  O     -820.826     396.965     269.148
  C     -818.700     398.066     269.661
  N     -814.342     395.456     270.323
  C     -815.309     395.371     269.382
  N     -816.449     396.090     269.276
  C     -816.532     396.984     270.282
  C     -815.631     397.177     271.299
  C     -814.488     396.363     271.306
  N     -813.507     396.458     272.278
  N     -816.064     398.167     272.160
  C     -817.205     398.592     271.637
  N     -817.535     397.891     270.506
  O     -821.323     403.099     272.335
  O     -819.715     402.354     274.179
  H     -820.243     396.528     268.497
  H     -821.957     402.882     273.051
  H     -815.140     394.627     268.612
  H     -817.830     399.371     272.040
  H     -818.444     397.667     268.665
  H     -819.825     396.598     270.889
  H     -820.173     398.784     271.892
  H     -820.972     399.708     269.081
  H     -819.983     401.898     269.890
  H     -812.699     395.852     272.200
  H     -813.595     397.153     273.012
  H     -821.471     401.431     270.703
  P     -822.643     398.057     272.445
  C     -824.364     400.015     272.320
  O     -824.150     398.615     272.441
  O     -821.869     399.069     273.420
  O     -822.470     396.633     272.849
  H     -821.754     398.660     274.306
  H     -825.403     400.180     272.036
  H     -823.716     400.440     271.551
  H     -824.173     400.510     273.280
  H     -818.239     405.583     272.081
  H     -818.718     404.956     273.640
  H     -819.932     405.359     272.450

 3  4  5  6  7  8  9  10  11  12  22  25  29  30  31  32 0
 6-311+G(2d,p)
 ****
 33  36  37 0
 6-311+G(2d,p)
 ****
 1  2  13  14  15  16  17  18  19  20  21  23  24  26 0
 3-21G
 ****
 27  28  34  35  38  39  40  41  42  43  44  45  46  47  48 0
 3-21G
 ****


