%nproc=1
%NoSave
%Mem=1900MB
#P OB98/GEN NMR

erre ene a

0 1
  C      132.086    -891.930    -353.238
  O      132.453    -892.810    -352.188
  P      131.716    -892.640    -350.773
  C      130.720    -894.870    -349.858
  O      130.556    -893.760    -350.718
  C      129.368    -895.510    -349.550
  O      128.513    -894.510    -348.936
  C      128.616    -896.060    -350.778
  O      127.866    -897.190    -350.331
  C      127.667    -894.930    -351.119
  O      126.550    -895.360    -351.898
  C      127.314    -894.420    -349.736
  N      123.669    -891.220    -348.291
  C      123.752    -892.590    -348.160
  N      122.742    -893.190    -347.488
  N      124.730    -893.320    -348.627
  C      125.674    -892.580    -349.256
  C      125.696    -891.220    -349.487
  C      124.628    -890.430    -348.919
  O      124.563    -889.200    -348.936
  N      126.782    -890.860    -350.230
  C      127.456    -891.970    -350.382
  N      126.852    -893.030    -349.775
  O      130.910    -891.270    -350.949
  O      132.609    -892.640    -349.574
  H      125.993    -894.580    -352.084
  H      131.428    -890.520    -350.603
  H      122.898    -890.710    -347.885
  H      128.392    -892.070    -350.923
  H      126.529    -895.010    -349.252
  H      128.199    -894.160    -351.703
  H      121.963    -892.690    -347.078
  H      129.270    -896.330    -351.594
  H      122.785    -894.190    -347.354
  H      129.520    -896.310    -348.812
  H      131.174    -894.540    -348.921
  H      131.402    -895.600    -350.326
  P      127.929    -898.520    -351.222
  C      130.203    -899.360    -350.307
  O      129.472    -898.900    -351.421
  O      127.482    -898.010    -352.668
  O      127.040    -899.630    -350.753
  H      127.008    -898.720    -353.139
  H      131.067    -899.940    -350.654
  H      129.598    -900.000    -349.658
  H      130.563    -898.500    -349.731
  H      132.657    -892.161    -354.113
  H      132.281    -890.920    -352.942
  H      131.044    -892.044    -353.451

 3  4  5  6  7  8  9  10  11  12  23  26  30  31 0
 6-311+G(2d,p)
 ****
 33  35  36  37  38 0
 6-311+G(2d,p)
 ****
 1  2  13  14  15  16  17  18  19  20  21  22  24  25 0
 3-21G
 ****
 27  28  29  32  34  39  40  41  42  43  44  45  46  47  48  49 0
 3-21G
 ****


