%nproc=1
%NoSave
%Mem=1900MB
#P OB98/GEN NMR

erre ene a

0 1
  C      278.366     170.063     190.268
  O      278.365     170.410     188.892
  P      277.325     169.732     187.874
  C      276.504     172.056     187.088
  O      276.155     170.817     187.693
  C      275.868     172.158     185.706
  O      274.473     171.807     185.795
  C      275.902     173.553     185.097
  O      277.194     173.859     184.598
  C      274.800     173.443     184.050
  O      275.289     172.764     182.877
  C      273.765     172.557     184.773
  N      272.667     173.323     185.350
  C      271.411     173.162     184.761
  O      271.257     172.401     183.808
  N      270.342     173.849     185.286
  C      270.513     174.641     186.297
  N      269.408     175.241     186.819
  C      271.832     174.880     186.920
  C      272.850     174.192     186.408
  O      276.857     168.373     188.268
  O      278.062     169.775     186.457
  H      276.002     173.322     182.509
  H      278.630     168.986     186.283
  H      271.921     175.563     187.754
  H      273.846     174.296     186.818
  H      273.349     171.816     184.080
  H      274.401     174.407     183.732
  H      275.620     174.308     185.845
  H      276.363     171.438     185.043
  H      268.510     174.908     186.480
  H      277.598     172.097     186.982
  H      269.410     175.626     187.758
  H      276.182     172.876     187.738
  P      277.537     175.400     184.311
  C      277.874     175.744     186.854
  O      277.224     176.179     185.679
  O      276.374     175.856     183.314
  O      278.900     175.632     183.742
  H      276.698     175.871     182.390
  H      277.746     176.511     187.625
  H      278.945     175.599     186.681
  H      277.422     174.814     187.208
  H      279.127     170.619     190.775
  H      278.560     169.016     190.372
  H      277.412     170.293     190.694

 3  4  5  6  7  8  9  10  11  12  13  23  27  28  29  30  32 0
 6-311+G(2d,p)
 ****
 34  35 0
 6-311+G(2d,p)
 ****
 1  2  14  15  16  17  18  19  20  21  22  24  25  26 0
 3-21G
 ****
 31  33  36  37  38  39  40  41  42  43  44  45  46 0
 3-21G
 ****


