%nproc=1
%NoSave
%Mem=1900MB
#P OB98/GEN NMR

erre ene a

0 1
  C     -266.501    -387.408     404.136
  O     -265.620    -387.310     403.009
  P     -264.242    -386.513     403.214
  C     -264.697    -384.757     401.345
  O     -263.848    -385.800     401.828
  C     -264.487    -384.518     399.847
  O     -263.312    -383.685     399.620
  C     -264.270    -385.808     399.039
  O     -264.775    -385.607     397.710
  C     -262.760    -385.905     398.969
  O     -262.338    -386.774     397.920
  C     -262.390    -384.433     398.793
  N     -257.720    -383.727     397.036
  C     -258.878    -384.038     396.360
  N     -258.799    -384.137     395.016
  N     -260.042    -384.232     396.949
  C     -259.974    -384.052     398.301
  C     -258.889    -383.754     399.077
  C     -257.601    -383.571     398.411
  O     -256.541    -383.305     398.955
  N     -259.212    -383.692     400.408
  C     -260.512    -383.951     400.430
  N     -261.027    -384.149     399.174
  O     -263.159    -387.690     403.344
  O     -264.226    -385.628     404.424
  H     -262.787    -387.642     398.054
  H     -262.855    -387.754     404.259
  H     -256.852    -383.598     396.523
  H     -261.119    -384.023     401.329
  H     -262.512    -384.091     397.747
  H     -262.364    -386.300     399.917
  H     -257.956    -383.951     394.489
  H     -264.738    -386.697     399.465
  H     -259.646    -384.323     394.496
  H     -265.360    -383.981     399.455
  H     -264.500    -383.832     401.891
  H     -265.738    -385.025     401.565
  P     -266.356    -385.797     397.498
  C     -266.140    -387.779     395.822
  O     -266.540    -386.440     396.037
  O     -266.902    -384.304     397.324
  O     -267.046    -386.520     398.609
  H     -267.846    -384.257     397.572
  H     -267.033    -388.407     395.792
  H     -265.476    -388.146     396.621
  H     -265.625    -387.844     394.863
  H     -267.374    -387.961     403.859
  H     -266.786    -386.426     404.452
  H     -266.000    -387.910     404.938

 3  4  5  6  7  8  9  10  11  12  23  26  30  31 0
 6-311+G(2d,p)
 ****
 33  35  36  37  38 0
 6-311+G(2d,p)
 ****
 1  2  13  14  15  16  17  18  19  20  21  22  24  25 0
 3-21G
 ****
 27  28  29  32  34  39  40  41  42  43  44  45  46  47  48  49 0
 3-21G
 ****


