%nproc=1
%NoSave
%Mem=1900MB
#P OB98/GEN NMR

erre ene a

0 1
  C     -113.391    -405.442    -366.643
  O     -114.049    -405.254    -365.398
  P     -115.204    -404.148    -365.240
  C     -113.797    -403.236    -363.296
  O     -115.088    -403.638    -363.715
  C     -113.781    -403.058    -361.766
  O     -114.563    -401.881    -361.443
  C     -114.392    -404.200    -360.951
  O     -113.507    -405.278    -360.685
  C     -114.703    -403.466    -359.643
  O     -113.498    -403.345    -358.859
  C     -115.177    -402.107    -360.139
  N     -119.507    -400.810    -357.735
  C     -118.208    -400.752    -357.363
  N     -117.118    -401.135    -358.054
  C     -117.455    -401.575    -359.284
  C     -118.733    -401.692    -359.812
  C     -119.800    -401.282    -358.978
  N     -121.116    -401.317    -359.370
  N     -118.683    -402.202    -361.085
  C     -117.390    -402.391    -361.324
  N     -116.619    -402.010    -360.262
  O     -116.559    -404.599    -365.674
  O     -114.666    -402.896    -366.069
  H     -113.657    -402.663    -358.174
  H     -115.409    -402.279    -366.262
  H     -118.028    -400.348    -356.364
  H     -116.984    -402.790    -362.247
  H     -114.838    -401.283    -359.484
  H     -115.420    -404.013    -359.018
  H     -115.334    -404.548    -361.402
  H     -112.737    -402.875    -361.459
  H     -113.555    -402.286    -363.764
  H     -121.796    -400.889    -358.773
  H     -121.315    -401.514    -360.351
  H     -113.044    -403.976    -363.601
  P     -113.965    -406.735    -361.200
  C     -113.129    -408.054    -359.091
  O     -112.982    -407.786    -360.473
  O     -114.058    -406.876    -362.681
  O     -115.359    -406.961    -360.445
  H     -115.304    -407.048    -359.481
  H     -112.481    -408.898    -358.831
  H     -114.168    -408.329    -358.855
  H     -112.837    -407.193    -358.502
  H     -112.660    -406.217    -366.547
  H     -112.909    -404.532    -366.933
  H     -114.108    -405.719    -367.387

 3  4  5  6  7  8  9  10  11  12  22  25  29  30  31  32 0
 6-311+G(2d,p)
 ****
 33  36  37 0
 6-311+G(2d,p)
 ****
 1  2  13  14  15  16  17  18  19  20  21  23  24  26 0
 3-21G
 ****
 27  28  34  35  38  39  40  41  42  43  44  45  46  47  48 0
 3-21G
 ****


