%nproc=1
%NoSave
%Mem=1900MB
#P OB98/GEN NMR

erre ene a

0 1
  C       76.280      97.264    -725.940
  O       75.124      97.332    -725.133
  H       77.029      96.651    -725.430
  H       76.696      98.266    -726.087
  H       76.060      96.809    -726.908
  P       73.797      98.004    -725.731
  C       74.264     100.221    -724.495
  O       74.052      99.589    -725.752
  C       73.685     101.632    -724.519
  O       73.514     102.127    -723.175
  C       74.571     102.655    -725.234
  O       74.489     102.510    -726.639
  C       73.989     103.955    -724.683
  O       72.791     104.318    -725.387
  C       73.680     103.563    -723.219
  N       74.708     104.006    -722.275
  C       74.963     105.371    -722.231
  O       74.407     106.183    -722.962
  N       75.913     105.770    -721.324
  C       76.668     104.950    -720.538
  O       77.539     105.346    -719.778
  C       76.374     103.511    -720.648
  C       75.427     103.106    -721.497
  O       72.505      97.581    -725.106
  O       73.851      97.616    -727.287
  H       73.026     104.375    -726.335
  H       73.257      96.862    -727.455
  H       76.123     106.755    -721.282
  H       76.953     102.823    -720.045
  H       75.201     102.060    -721.602
  H       72.719     104.003    -722.903
  H       74.676     104.799    -724.785
  H       75.609     102.564    -724.887
  H       72.693     101.584    -724.995
  H       75.340     100.279    -724.301
  H       73.790      99.624    -723.712
  P       75.803     102.605    -727.546
  C       74.861     104.151    -729.360
  O       75.784     104.033    -728.286
  O       76.036     101.433    -728.447
  O       76.992     102.751    -726.482
  H       77.488     101.916    -726.420
  H       74.927     105.132    -729.781
  H       73.868     103.985    -728.997
  H       75.092     103.424    -730.111

 6  7  8  9  10  11  12  13  14  15  16  26  31  32  33  34  35 0
 6-311+G(2d,p)
 ****
 36  37 0
 6-311+G(2d,p)
 ****
 1  2  3  4  5  17  18  19  20  21  22  23  24  25 0
 3-21G
 ****
 27  28  29  30  38  39  40  41  42  43  44  45 0
 3-21G
 ****


