%nproc=1
%NoSave
%Mem=1900MB
#P OB98/GEN NMR

erre ene a

0 1
  C      -63.979      -1.225      58.292
  O      -64.025      -0.450      57.097
  P      -63.195      -0.984      55.833
  C      -64.414       0.664      54.193
  O      -63.195       0.168      54.720
  C      -64.164       1.568      52.973
  O      -63.922       2.920      53.447
  C      -62.940       1.210      52.135
  O      -63.067       1.830      50.848
  C      -61.824       1.883      52.910
  O      -60.652       2.040      52.115
  C      -62.495       3.194      53.386
  N      -62.010       3.663      54.700
  C      -60.831       4.407      54.746
  O      -60.162       4.700      53.754
  N      -60.405       4.787      55.992
  C      -61.048       4.537      57.169
  O      -60.578       4.825      58.266
  C      -62.355       3.872      57.053
  C      -62.762       3.463      55.849
  O      -64.144      -2.124      55.222
  O      -61.840      -1.507      56.178
  H      -60.052       2.642      52.621
  H      -63.783      -3.008      55.432
  H      -59.517       5.268      56.046
  H      -62.926       3.718      57.959
  H      -63.719       2.952      55.749
  H      -62.326       4.004      52.667
  H      -61.554       1.268      53.774
  H      -62.767       0.137      52.014
  H      -65.064       1.592      52.353
  H      -64.960       1.207      54.970
  H      -65.054      -0.178      53.896
  P      -63.155       0.882      49.561
  C      -65.299       2.008      48.695
  O      -63.936       1.721      48.438
  O      -63.658      -0.504      49.802
  O      -61.645       0.880      49.008
  H      -61.515       0.118      48.419
  H      -65.561       2.947      48.198
  H      -65.493       2.111      49.770
  H      -65.921       1.204      48.292
  H      -64.574      -0.753      59.046
  H      -62.967      -1.299      58.630
  H      -64.362      -2.205      58.097

 3  4  5  6  7  8  9  10  11  12  13  23  28  29  30  31  32 0
 6-311+G(2d,p)
 ****
 33  34 0
 6-311+G(2d,p)
 ****
 1  2  14  15  16  17  18  19  20  21  22  24  25  26  27 0
 3-21G
 ****
 35  36  37  38  39  40  41  42  43  44  45 0
 3-21G
 ****


