%nproc=1
%NoSave
%Mem=1900MB
#P OB98/GEN NMR

erre ene a

0 1
  C      -22.433    -185.161      55.577
  O      -22.438    -185.121      54.165
  H      -21.403    -185.294      55.923
  H      -23.033    -186.002      55.930
  H      -22.826    -184.227      55.988
  P      -23.839    -184.815      53.451
  C      -24.727    -187.263      53.508
  O      -24.867    -185.932      53.979
  C      -26.075    -187.780      53.006
  O      -25.946    -189.197      52.706
  C      -27.204    -187.632      54.033
  O      -28.419    -187.313      53.351
  C      -27.306    -189.018      54.644
  O      -28.572    -189.298      55.223
  C      -26.980    -189.895      53.430
  N      -26.537    -191.234      53.806
  C      -27.337    -191.949      54.690
  O      -28.425    -191.568      55.118
  N      -26.838    -193.165      55.089
  C      -25.642    -193.705      54.719
  O      -25.239    -194.788      55.129
  C      -24.837    -192.897      53.790
  C      -25.314    -191.718      53.384
  O      -23.582    -185.249      51.930
  O      -24.336    -183.415      53.570
  H      -23.251    -184.490      51.410
  H      -28.526    -190.184      55.636
  H      -27.407    -193.697      55.730
  H      -23.878    -193.291      53.482
  H      -24.739    -191.093      52.711
  H      -27.853    -189.965      52.767
  H      -26.543    -189.141      55.422
  H      -26.993    -186.870      54.787
  H      -26.326    -187.273      52.066
  H      -24.379    -187.899      54.329
  H      -23.987    -187.285      52.701
  P      -28.955    -185.802      53.461
  C      -30.474    -186.168      55.558
  O      -29.307    -185.573      55.012
  O      -30.376    -185.918      52.743
  O      -28.015    -184.805      52.864
  H      -30.834    -186.756      52.919
  H      -30.553    -185.914      56.594
  H      -30.414    -187.231      55.455
  H      -31.336    -185.808      55.036

 6  7  8  9  10  11  12  13  14  15  16  27  31  32  33  34  35 0
 6-311+G(2d,p)
 ****
 36  37 0
 6-311+G(2d,p)
 ****
 1  2  3  4  5  17  18  19  20  21  22  23  24  25 0
 3-21G
 ****
 26  28  29  30  38  39  40  41  42  43  44  45 0
 3-21G
 ****


