%nproc=1
%NoSave
%Mem=1900MB
#P OB98/GEN NMR

erre ene a

0 1
  C      -88.404     111.689    -219.764
  O      -87.037     111.602    -220.175
  P      -86.767     110.982    -221.635
  C      -87.430     108.555    -221.029
  O      -87.699     109.695    -221.829
  C      -88.430     107.420    -221.288
  O      -88.107     106.247    -220.497
  C      -89.876     107.797    -220.939
  O      -90.728     107.114    -221.879
  C      -90.079     107.194    -219.574
  O      -91.464     107.016    -219.273
  C      -89.263     105.899    -219.706
  N      -88.881     105.322    -218.415
  C      -89.199     103.973    -218.206
  O      -89.840     103.346    -219.058
  N      -88.826     103.379    -217.024
  C      -88.230     104.078    -216.112
  N      -87.887     103.432    -214.960
  C      -87.931     105.512    -216.265
  C      -88.274     106.059    -217.432
  O      -85.288     110.369    -221.507
  O      -86.840     111.998    -222.736
  H      -91.891     106.583    -220.048
  H      -84.735     110.676    -222.252
  H      -87.448     106.066    -215.461
  H      -88.092     107.104    -217.637
  H      -89.828     105.140    -220.261
  H      -89.636     107.850    -218.802
  H      -90.069     108.878    -220.993
  H      -88.362     107.140    -222.343
  H      -88.104     102.442    -214.895
  H      -87.467     108.829    -219.969
  H      -87.424     103.878    -214.183
  H      -86.401     108.218    -221.225
  P      -91.166     107.885    -223.216
  C      -93.654     107.971    -222.555
  O      -92.476     108.720    -222.799
  O      -91.813     106.695    -224.078
  O      -90.117     108.613    -223.990
  H      -92.055     107.014    -224.959
  H      -94.419     108.640    -222.168
  H      -93.460     107.188    -221.815
  H      -94.006     107.521    -223.485
  H      -88.455     112.114    -218.783
  H      -88.836     110.710    -219.751
  H      -88.944     112.308    -220.450

 3  4  5  6  7  8  9  10  11  12  13  21  23  27  28  29  30  32 0
 6-311+G(2d,p)
 ****
 34  35 0
 6-311+G(2d,p)
 ****
 1  2  14  15  16  17  18  19  20  22  24  25  26 0
 3-21G
 ****
 31  33  36  37  38  39  40  41  42  43  44  45  46 0
 3-21G
 ****


