%nproc=1
%NoSave
%Mem=1900MB
#P OB98/GEN NMR

erre ene a

0 1
  C     -245.162    -124.272      94.729
  O     -244.403    -123.659      95.752
  H     -245.313    -125.323      94.988
  H     -244.625    -124.223      93.779
  H     -246.140    -123.790      94.630
  P     -244.168    -122.076      95.695
  C     -246.061    -121.505      97.355
  O     -244.661    -121.479      97.098
  C     -246.309    -121.643      98.856
  O     -245.919    -122.958      99.312
  C     -245.519    -120.654      99.705
  O     -246.088    -119.366      99.658
  C     -245.586    -121.337     101.067
  O     -246.838    -121.059     101.713
  C     -245.477    -122.825     100.680
  N     -244.128    -123.364     100.855
  C     -243.798    -123.801     102.134
  O     -244.560    -123.727     103.093
  N     -242.531    -124.309     102.279
  C     -241.556    -124.318     101.326
  O     -240.407    -124.700     101.536
  C     -241.955    -123.818     100.002
  C     -243.202    -123.371      99.831
  O     -244.709    -121.383      94.488
  O     -242.574    -121.928      95.785
  H     -246.970    -121.770     102.369
  H     -242.220    -121.704      94.902
  H     -242.271    -124.622     103.204
  H     -241.209    -123.819      99.217
  H     -243.511    -122.994      98.862
  H     -246.168    -123.426     101.288
  H     -244.792    -120.997     101.736
  H     -244.471    -120.632      99.375
  H     -247.390    -121.530      99.037
  H     -246.498    -122.361      96.833
  H     -246.508    -120.582      96.970
  P     -245.154    -118.076      99.840
  C     -245.340    -117.071      97.478
  O     -245.697    -116.934      98.855
  O     -243.686    -118.333      99.761
  O     -245.554    -117.520     101.285
  H     -244.770    -117.525     101.868
  H     -245.754    -116.258      96.919
  H     -245.724    -117.996      97.100
  H     -244.274    -117.062      97.383

 6  7  8  9  10  11  12  13  14  15  16  26  31  32  33  34  35 0
 6-311+G(2d,p)
 ****
 36  37 0
 6-311+G(2d,p)
 ****
 1  2  3  4  5  17  18  19  20  21  22  23  24  25 0
 3-21G
 ****
 27  28  29  30  38  39  40  41  42  43  44  45 0
 3-21G
 ****


