%nproc=1
%NoSave
%Mem=1900MB
#P OB98/GEN NMR

erre ene a

0 1
  C     -156.320    -137.393    -306.322
  O     -156.415    -137.080    -307.696
  H     -157.287    -137.736    -305.946
  H     -155.587    -138.193    -306.191
  H     -155.992    -136.516    -305.756
  P     -157.473    -135.947    -308.110
  C     -158.164    -137.015    -310.370
  O     -157.531    -135.923    -309.718
  C     -157.690    -137.100    -311.821
  O     -156.350    -137.654    -311.831
  C     -158.573    -137.970    -312.732
  O     -159.052    -137.198    -313.839
  C     -157.632    -139.039    -313.264
  O     -157.843    -139.339    -314.644
  C     -156.248    -138.447    -313.022
  N     -153.274    -141.718    -315.553
  C     -153.867    -140.568    -315.940
  N     -154.559    -139.688    -315.189
  C     -154.587    -140.079    -313.903
  C     -154.009    -141.214    -313.357
  C     -153.342    -142.070    -314.248
  N     -152.785    -143.270    -313.866
  N     -154.260    -141.283    -311.997
  C     -155.012    -140.233    -311.740
  N     -155.252    -139.486    -312.863
  O     -156.716    -134.585    -307.740
  O     -158.799    -136.043    -307.433
  H     -157.181    -140.013    -314.888
  H     -157.317    -134.003    -307.236
  H     -153.781    -140.326    -316.998
  H     -155.446    -139.990    -310.776
  H     -155.932    -137.789    -313.841
  H     -157.776    -139.960    -312.685
  H     -159.420    -138.419    -312.202
  H     -157.621    -136.080    -312.220
  H     -159.250    -136.870    -310.360
  H     -152.431    -143.874    -314.589
  H     -152.928    -143.588    -312.916
  H     -157.929    -137.938    -309.828
  P     -160.638    -137.243    -314.120
  C     -160.491    -138.199    -316.538
  O     -160.847    -137.102    -315.706
  O     -161.141    -135.834    -313.555
  O     -161.332    -138.392    -313.468
  H     -162.077    -135.898    -313.280
  H     -160.688    -137.950    -317.560
  H     -161.067    -139.058    -316.262
  H     -159.450    -138.414    -316.418

 6  7  8  9  10  11  12  13  14  15  25  28  32  33  34  35 0
 6-311+G(2d,p)
 ****
 36  39  40 0
 6-311+G(2d,p)
 ****
 1  2  3  4  5  16  17  18  19  20  21  22  23  24 0
 3-21G
 ****
 26  27  29  30  31  37  38  41  42  43  44  45  46  47  48 0
 3-21G
 ****


