%nproc=1
%NoSave
%Mem=1900MB
#P OB98/GEN NMR

erre ene a

0 1
  C     -280.619      47.738     209.123
  O     -281.832      47.469     209.794
  H     -279.788      47.412     209.754
  H     -280.518      48.810     208.931
  H     -280.582      47.187     208.178
  P     -283.176      47.978     209.074
  C     -284.527      46.059     210.211
  O     -284.087      46.656     209.002
  C     -284.799      44.575     209.992
  O     -283.598      43.895     209.561
  C     -285.258      43.824     211.241
  O     -286.620      44.045     211.560
  C     -285.006      42.395     210.791
  O     -286.026      41.996     209.857
  C     -283.637      42.543     210.096
  N     -282.507      42.317     211.002
  C     -282.234      40.985     211.343
  O     -282.921      40.069     210.894
  N     -281.204      40.725     212.215
  C     -280.496      41.699     212.689
  N     -279.492      41.380     213.550
  C     -280.739      43.114     212.350
  C     -281.747      43.346     211.512
  O     -282.729      48.180     207.551
  O     -283.838      49.165     209.688
  H     -286.882      42.220     210.267
  H     -283.521      48.354     206.987
  H     -280.129      43.895     212.781
  H     -281.985      44.363     211.214
  H     -283.550      41.852     209.250
  H     -285.027      41.676     211.610
  H     -284.616      44.042     212.100
  H     -285.533      44.485     209.182
  H     -279.387      40.407     213.812
  H     -285.444      46.567     210.531
  H     -278.985      42.070     214.087
  H     -283.765      46.178     210.988
  P     -286.943      44.751     212.965
  C     -288.984      46.187     212.220
  O     -287.622      46.165     212.630
  O     -285.496      45.157     213.508
  O     -287.690      43.899     213.942
  H     -285.457      45.094     214.482
  H     -289.285      47.197     212.036
  H     -289.596      45.768     212.991
  H     -289.096      45.613     211.324

 6  7  8  9  10  11  12  13  14  15  16  26  30  31  32  33  35 0
 6-311+G(2d,p)
 ****
 37  38 0
 6-311+G(2d,p)
 ****
 1  2  3  4  5  17  18  19  20  21  22  23  24  25 0
 3-21G
 ****
 27  28  29  34  36  39  40  41  42  43  44  45  46 0
 3-21G
 ****


