%nproc=1
%NoSave
%Mem=1900MB
#P OB98/GEN NMR

erre ene a

0 1
  C      -28.855    -351.182      60.944
  O      -29.966    -351.851      61.525
  P      -31.107    -352.400      60.536
  C      -33.446    -351.295      60.780
  O      -32.108    -351.167      60.309
  C      -33.466    -351.486      62.293
  O      -32.594    -350.531      62.927
  C      -34.831    -351.291      62.936
  O      -35.645    -352.450      62.834
  C      -34.431    -351.051      64.387
  O      -34.135    -352.306      65.025
  C      -33.152    -350.221      64.232
  N      -32.784    -346.132      67.281
  C      -32.538    -347.441      67.498
  N      -32.672    -348.475      66.639
  C      -33.143    -348.046      65.454
  C      -33.475    -346.750      65.102
  C      -33.269    -345.758      66.071
  N      -33.491    -344.418      65.839
  N      -33.931    -346.701      63.803
  C      -33.869    -347.945      63.374
  N      -33.388    -348.793      64.333
  O      -31.946    -353.392      61.472
  O      -30.603    -353.076      59.307
  H      -33.564    -352.811      64.410
  H      -32.418    -354.045      60.923
  H      -32.178    -347.696      68.494
  H      -34.146    -348.273      62.382
  H      -32.393    -350.484      64.980
  H      -35.224    -350.575      64.973
  H      -35.334    -350.400      62.543
  H      -33.077    -352.490      62.511
  H      -33.911    -352.166      60.304
  H      -33.143    -343.755      66.518
  H      -33.655    -344.124      64.882
  H      -34.010    -350.402      60.500
  P      -37.203    -352.271      63.180
  C      -37.902    -353.533      65.340
  O      -37.299    -352.388      64.773
  O      -37.849    -353.634      62.650
  O      -37.832    -351.066      62.560
  H      -38.792    -353.501      62.431
  H      -37.615    -353.599      66.392
  H      -37.579    -354.445      64.829
  H      -38.992    -353.446      65.280
  H      -28.181    -350.874      61.716
  H      -29.198    -350.323      60.406
  H      -28.350    -351.845      60.273

 3  4  5  6  7  8  9  10  11  12  22  25  29  30  31  32 0
 6-311+G(2d,p)
 ****
 33  36  37 0
 6-311+G(2d,p)
 ****
 1  2  13  14  15  16  17  18  19  20  21  23  24  26 0
 3-21G
 ****
 27  28  34  35  38  39  40  41  42  43  44  45  46  47  48 0
 3-21G
 ****


