%nproc=1
%NoSave
%Mem=1900MB
#P OB98/GEN NMR

erre ene a

0 1
  C      -51.614     -61.633     -92.998
  O      -50.954     -61.011     -94.085
  P      -51.608     -61.164     -95.540
  C      -53.035     -59.007     -95.210
  O      -53.013     -60.395     -95.513
  C      -53.181     -58.200     -96.502
  O      -54.374     -58.599     -97.212
  C      -53.324     -56.702     -96.272
  O      -52.070     -56.097     -96.005
  C      -53.951     -56.248     -97.582
  O      -52.949     -56.054     -98.593
  C      -54.856     -57.446     -97.934
  N      -56.264     -57.184     -97.660
  C      -57.012     -56.698     -98.728
  O      -56.527     -56.474     -99.837
  N      -58.329     -56.438     -98.468
  C      -58.948     -56.561     -97.257
  O      -60.120     -56.259     -97.073
  C      -58.100     -57.051     -96.157
  C      -56.818     -57.329     -96.404
  O      -52.020     -62.709     -95.615
  O      -50.712     -60.774     -96.667
  H      -52.495     -56.913     -98.703
  H      -51.897     -63.041     -96.525
  H      -58.894     -56.110     -99.234
  H      -58.558     -57.160     -95.183
  H      -56.175     -57.678     -95.604
  H      -54.755     -57.694     -98.998
  H      -54.486     -55.300     -97.476
  H      -54.030     -56.515     -95.453
  H      -52.315     -58.411     -97.142
  H      -52.105     -58.732     -94.707
  H      -53.868     -58.801     -94.533
  P      -52.043     -54.939     -94.892
  C      -52.243     -56.515     -92.818
  O      -52.846     -55.543     -93.644
  O      -53.035     -53.869     -95.551
  O      -50.669     -54.430     -94.614
  H      -53.737     -54.293     -96.072
  H      -51.172     -56.334     -92.703
  H      -52.402     -57.506     -93.249
  H      -52.714     -56.479     -91.832
  H      -51.068     -61.448     -92.096
  H      -51.670     -62.687     -93.171
  H      -52.602     -61.234     -92.905

 3  4  5  6  7  8  9  10  11  12  13  23  28  29  30  31  32 0
 6-311+G(2d,p)
 ****
 33  34 0
 6-311+G(2d,p)
 ****
 1  2  14  15  16  17  18  19  20  21  22  24  25  26 0
 3-21G
 ****
 27  35  36  37  38  39  40  41  42  43  44  45 0
 3-21G
 ****


