%nproc=1
%NoSave
%Mem=1900MB
#P OB98/GEN NMR

erre ene a

0 1
  C     1009.147      59.612    -209.468
  O     1009.135      60.965    -209.883
  H     1008.181      59.386    -208.994
  H     1009.945      59.432    -208.742
  H     1009.272      58.947    -210.331
  P     1010.468      61.563    -210.551
  C     1011.785      61.999    -208.371
  O     1011.684      61.221    -209.555
  C     1012.982      61.541    -207.530
  O     1013.930      60.917    -208.435
  C     1013.688      62.690    -206.806
  O     1013.834      62.481    -205.401
  C     1014.955      62.902    -207.628
  O     1016.035      63.471    -206.914
  C     1015.232      61.503    -208.200
  N     1016.023      61.507    -209.426
  C     1017.255      60.876    -209.390
  O     1017.730      60.291    -208.417
  N     1017.985      60.925    -210.562
  C     1017.598      61.524    -211.716
  O     1018.290      61.522    -212.719
  C     1016.283      62.196    -211.686
  C     1015.561      62.158    -210.553
  O     1010.379      62.999    -210.961
  O     1010.748      60.616    -211.807
  H     1016.757      63.626    -207.536
  H     1010.455      61.061    -212.626
  H     1018.885      60.464    -210.534
  H     1015.951      62.687    -212.584
  H     1014.592      62.634    -210.498
  H     1015.748      60.900    -207.461
  H     1014.719      63.586    -208.460
  H     1013.078      63.625    -206.867
  H     1012.640      60.766    -206.820
  H     1010.857      61.874    -207.809
  H     1011.902      63.059    -208.632
  P     1012.909      63.155    -204.289
  C     1014.659      64.782    -203.176
  O     1013.491      64.611    -203.980
  O     1012.596      62.289    -203.104
  O     1011.528      63.445    -205.072
  H     1010.801      63.352    -204.397
  H     1014.883      65.825    -203.089
  H     1015.484      64.277    -203.633
  H     1014.485      64.372    -202.203

 6  7  8  9  10  11  12  13  14  15  16  26  31  32  33  34  35 0
 6-311+G(2d,p)
 ****
 36  37 0
 6-311+G(2d,p)
 ****
 1  2  3  4  5  17  18  19  20  21  22  23  24  25 0
 3-21G
 ****
 27  28  29  30  38  39  40  41  42  43  44  45 0
 3-21G
 ****


