%nproc=1
%NoSave
%Mem=1900MB
#P OB98/GEN NMR

erre ene a

0 1
  C     -348.647     -42.650     -59.113
  O     -349.475     -43.272     -58.153
  H     -348.882     -43.062     -60.098
  H     -347.597     -42.851     -58.889
  H     -348.826     -41.571     -59.128
  P     -349.316     -42.795     -56.628
  C     -348.904     -45.093     -55.474
  O     -349.825     -44.044     -55.749
  C     -349.620     -46.447     -55.483
  O     -350.069     -46.754     -54.139
  C     -350.842     -46.480     -56.402
  O     -350.856     -47.713     -57.125
  C     -352.024     -46.401     -55.454
  O     -353.199     -46.994     -56.003
  C     -351.471     -47.079     -54.196
  N     -352.166     -46.637     -52.989
  C     -353.528     -46.936     -52.901
  O     -354.091     -47.536     -53.819
  N     -354.234     -46.507     -51.805
  C     -353.643     -45.786     -50.904
  N     -354.400     -45.372     -49.852
  C     -352.221     -45.405     -50.979
  C     -351.547     -45.862     -52.034
  O     -350.485     -41.719     -56.466
  O     -347.963     -42.284     -56.258
  H     -353.934     -46.858     -55.365
  H     -350.374     -41.187     -55.641
  H     -351.777     -44.787     -50.210
  H     -350.497     -45.629     -52.172
  H     -351.563     -48.170     -54.273
  H     -352.250     -45.348     -55.242
  H     -350.861     -45.656     -57.115
  H     -348.895     -47.222     -55.755
  H     -355.375     -45.644     -49.840
  H     -348.454     -44.922     -54.492
  H     -354.053     -44.782     -49.110
  H     -348.119     -45.090     -56.237
  P     -350.217     -47.670     -58.599
  C     -351.817     -49.547     -59.400
  O     -350.475     -49.104     -59.276
  O     -348.642     -47.652     -58.324
  O     -350.671     -46.504     -59.411
  H     -348.296     -46.742     -58.396
  H     -351.833     -50.510     -59.865
  H     -352.368     -48.852     -59.999
  H     -352.262     -49.612     -58.429

 6  7  8  9  10  11  12  13  14  15  16  26  30  31  32  33  35 0
 6-311+G(2d,p)
 ****
 37  38 0
 6-311+G(2d,p)
 ****
 1  2  3  4  5  17  18  19  20  21  22  23  24  25 0
 3-21G
 ****
 27  28  29  34  36  39  40  41  42  43  44  45  46 0
 3-21G
 ****


