%nproc=1
%NoSave
%Mem=1900MB
#P OB98/GEN NMR

erre ene a

0 1
  C     -145.240    -237.300     281.267
  O     -145.869    -238.495     281.687
  H     -144.678    -237.500     280.347
  H     -144.538    -236.965     282.038
  H     -145.978    -236.518     281.068
  P     -146.984    -238.371     282.830
  C     -145.024    -238.303     284.528
  O     -146.263    -237.740     284.128
  C     -144.679    -237.878     285.956
  O     -144.391    -236.451     285.961
  C     -145.812    -238.129     286.964
  O     -145.236    -238.557     288.205
  C     -146.439    -236.752     287.145
  O     -147.096    -236.611     288.402
  C     -145.225    -235.841     286.961
  N     -148.002    -231.843     288.301
  C     -147.740    -233.014     288.981
  N     -148.312    -233.151     290.200
  N     -146.988    -233.981     288.509
  C     -146.451    -233.691     287.295
  C     -146.637    -232.571     286.516
  C     -147.494    -231.524     287.036
  O     -147.780    -230.471     286.474
  N     -145.954    -232.671     285.331
  C     -145.354    -233.849     285.394
  N     -145.623    -234.504     286.566
  O     -147.249    -239.897     283.252
  O     -148.251    -237.691     282.423
  H     -147.289    -235.654     288.525
  H     -148.163    -240.145     283.027
  H     -148.597    -231.140     288.708
  H     -144.731    -234.276     284.615
  H     -144.635    -235.742     287.892
  H     -147.176    -236.580     286.351
  H     -148.865    -232.432     290.643
  H     -146.535    -238.872     286.622
  H     -148.102    -233.986     290.734
  H     -143.759    -238.388     286.261
  H     -144.239    -237.951     283.841
  H     -145.084    -239.396     284.468
  P     -145.453    -240.098     288.611
  C     -147.475    -239.735     290.203
  O     -147.008    -240.305     288.988
  O     -144.710    -240.210     290.028
  O     -144.898    -241.070     287.621
  H     -143.882    -240.718     289.925
  H     -148.516    -239.951     290.321
  H     -147.331    -238.675     290.178
  H     -146.929    -240.150     291.025

 6  7  8  9  10  11  12  13  14  15  26  29  33  34 0
 6-311+G(2d,p)
 ****
 36  38  39  40  41 0
 6-311+G(2d,p)
 ****
 1  2  3  4  5  16  17  18  19  20  21  22  23  24  25 0
 3-21G
 ****
 27  28  30  31  32  35  37  42  43  44  45  46  47 0
 3-21G
 ****
 48  49 0
 3-21G
 ****


