%nproc=1
%NoSave
%Mem=1900MB
#P OB98/GEN NMR

erre ene a

0 1
  C      401.910     518.094    -265.009
  O      402.078     516.828    -264.391
  P      403.579     516.289    -264.202
  C      404.414     514.165    -265.444
  O      403.932     515.497    -265.552
  C      403.248     513.172    -265.383
  O      402.306     513.460    -266.429
  C      403.654     511.721    -265.578
  O      404.224     511.198    -264.399
  C      402.314     511.090    -265.950
  O      401.580     510.707    -264.775
  C      401.594     512.228    -266.712
  N      401.509     511.981    -268.137
  C      400.388     511.253    -268.558
  O      399.564     510.844    -267.728
  N      400.251     510.956    -269.893
  C      401.164     511.363    -270.737
  N      400.965     511.055    -272.048
  C      402.358     512.111    -270.329
  C      402.480     512.379    -269.031
  O      403.417     515.127    -263.117
  O      404.571     517.332    -263.782
  H      402.119     510.003    -264.349
  H      404.246     514.996    -262.618
  H      403.083     512.422    -271.069
  H      403.331     512.919    -268.648
  H      400.572     512.356    -266.323
  H      402.443     510.178    -266.543
  H      404.348     511.629    -266.420
  H      402.729     513.301    -264.419
  H      400.131     510.537    -272.303
  H      405.010     514.057    -264.530
  H      401.600     511.338    -272.781
  H      405.055     513.949    -266.303
  P      405.312     510.030    -264.541
  C      404.602     507.592    -264.164
  O      404.475     508.742    -264.986
  O      405.660     509.702    -263.014
  O      406.535     510.345    -265.344
  H      406.396     509.062    -262.985
  H      403.863     506.859    -264.485
  H      404.406     507.853    -263.116
  H      405.600     507.171    -264.275
  H      400.867     518.326    -265.070
  H      402.328     518.068    -265.994
  H      402.409     518.843    -264.430

 3  4  5  6  7  8  9  10  11  12  13  21  23  27  28  29  30  32 0
 6-311+G(2d,p)
 ****
 34  35 0
 6-311+G(2d,p)
 ****
 1  2  14  15  16  17  18  19  20  22  24  25  26 0
 3-21G
 ****
 31  33  36  37  38  39  40  41  42  43  44  45  46 0
 3-21G
 ****


