%nproc=1
%NoSave
%Mem=1900MB
#P OB98/GEN NMR

erre ene a

0 1
  C     -337.029    -336.746     130.140
  O     -338.391    -337.119     130.058
  P     -339.348    -336.795     131.303
  C     -340.989    -335.121     130.111
  O     -340.780    -336.396     130.690
  C     -342.464    -334.926     129.772
  O     -342.807    -335.781     128.638
  C     -343.435    -335.276     130.907
  O     -344.536    -334.358     130.825
  C     -343.875    -336.684     130.561
  O     -345.110    -337.034     131.160
  C     -343.933    -336.593     129.027
  N     -343.876    -337.898     128.367
  C     -345.055    -338.628     128.274
  O     -346.130    -338.257     128.733
  N     -344.949    -339.846     127.647
  C     -343.804    -340.417     127.178
  O     -343.762    -341.517     126.642
  C     -342.579    -339.614     127.345
  C     -342.675    -338.409     127.910
  O     -338.743    -335.407     131.811
  O     -339.391    -337.878     132.329
  H     -338.423    -334.846     131.088
  H     -345.098    -336.728     132.088
  H     -345.799    -340.381     127.534
  H     -341.642    -340.036     126.999
  H     -341.786    -337.800     128.046
  H     -344.839    -336.062     128.713
  H     -343.118    -337.402     130.890
  H     -342.963    -335.201     131.895
  H     -342.610    -333.890     129.445
  H     -340.393    -335.039     129.193
  H     -340.643    -334.349     130.803
  P     -345.045    -333.658     132.182
  C     -346.516    -331.801     131.072
  O     -346.451    -332.964     131.857
  O     -344.037    -332.409     132.249
  O     -344.982    -334.518     133.399
  H     -343.974    -331.928     131.407
  H     -347.537    -331.682     130.692
  H     -345.834    -331.854     130.213
  H     -346.267    -330.927     131.674
  H     -336.527    -337.028     129.238
  H     -336.573    -337.241     130.972
  H     -336.957    -335.687     130.272

 3  4  5  6  7  8  9  10  11  12  13  24  28  29  30  31  32 0
 6-311+G(2d,p)
 ****
 33  34 0
 6-311+G(2d,p)
 ****
 1  2  14  15  16  17  18  19  20  21  22  23  25  26  27 0
 3-21G
 ****
 35  36  37  38  39  40  41  42  43  44  45 0
 3-21G
 ****


