%nproc=1
%NoSave
%Mem=1900MB
#P OB98/GEN NMR

erre ene a

0 1
  C     -170.562    -249.360     -46.149
  O     -171.008    -248.299     -45.329
  H     -169.583    -249.101     -46.559
  H     -171.260    -249.509     -46.976
  H     -170.469    -250.283     -45.569
  P     -172.314    -248.557     -44.438
  C     -173.464    -246.233     -44.630
  O     -172.731    -247.135     -43.816
  C     -173.301    -244.806     -44.107
  O     -173.865    -244.738     -42.767
  C     -171.843    -244.338     -44.016
  O     -171.794    -242.945     -44.342
  C     -171.516    -244.516     -42.545
  O     -170.447    -243.701     -42.089
  C     -172.863    -244.159     -41.906
  N     -172.988    -244.664     -40.541
  C     -173.307    -243.745     -39.547
  O     -173.573    -242.562     -39.744
  N     -173.313    -244.239     -38.267
  C     -173.018    -245.517     -37.894
  O     -173.021    -245.893     -36.728
  C     -172.680    -246.439     -38.989
  C     -172.677    -245.976     -40.240
  O     -171.738    -249.358     -43.180
  O     -173.424    -249.284     -45.121
  H     -171.754    -250.317     -43.350
  H     -170.242    -243.972     -41.171
  H     -173.542    -243.587     -37.534
  H     -172.428    -247.458     -38.730
  H     -172.413    -246.624     -41.069
  H     -173.012    -243.074     -41.913
  H     -171.255    -245.561     -42.345
  H     -171.153    -244.893     -44.660
  H     -173.890    -244.131     -44.738
  H     -174.524    -246.502     -44.605
  H     -173.105    -246.306     -45.662
  P     -170.660    -242.469     -45.373
  C     -170.150    -240.047     -44.514
  O     -170.804    -240.876     -45.464
  O     -171.255    -243.003     -46.756
  O     -169.304    -242.983     -45.024
  H     -172.226    -242.956     -46.795
  H     -170.359    -239.021     -44.732
  H     -169.094    -240.214     -44.562
  H     -170.504    -240.282     -43.532

 6  7  8  9  10  11  12  13  14  15  16  27  31  32  33  34  35 0
 6-311+G(2d,p)
 ****
 36  37 0
 6-311+G(2d,p)
 ****
 1  2  3  4  5  17  18  19  20  21  22  23  24  25 0
 3-21G
 ****
 26  28  29  30  38  39  40  41  42  43  44  45 0
 3-21G
 ****


