%nproc=1
%NoSave
%Mem=1900MB
#P OB98/GEN NMR

erre ene a

0 1
  C     -232.106     -54.962     188.825
  O     -232.810     -55.174     187.618
  H     -231.462     -55.828     189.010
  H     -232.807     -54.868     189.660
  H     -231.478     -54.069     188.759
  P     -233.713     -53.985     187.034
  C     -235.736     -55.011     188.276
  O     -234.978     -53.834     188.011
  C     -236.685     -54.766     189.447
  O     -235.931     -54.517     190.656
  C     -237.589     -53.549     189.266
  O     -238.651     -53.828     188.371
  C     -238.016     -53.293     190.703
  O     -239.084     -54.169     191.087
  C     -236.719     -53.628     191.477
  N     -235.955     -52.433     191.845
  C     -236.124     -51.961     193.146
  O     -236.896     -52.477     193.956
  N     -235.392     -50.851     193.474
  C     -234.619     -50.116     192.619
  O     -234.059     -49.071     192.943
  C     -234.495     -50.644     191.255
  C     -235.157     -51.761     190.934
  O     -234.044     -54.078     185.581
  O     -232.855     -52.669     187.354
  H     -239.311     -53.943     192.012
  H     -232.437     -52.347     186.532
  H     -235.509     -50.485     194.406
  H     -233.879     -50.098     190.554
  H     -235.081     -52.163     189.931
  H     -236.959     -54.175     192.394
  H     -238.366     -52.273     190.852
  H     -236.998     -52.695     188.913
  H     -237.284     -55.677     189.604
  H     -235.044     -55.825     188.526
  H     -236.294     -55.286     187.371
  P     -239.263     -52.656     187.470
  C     -241.321     -52.384     188.991
  O     -240.183     -51.744     188.416
  O     -239.908     -53.100     186.197
  O     -238.006     -51.709     187.168
  H     -237.855     -51.665     186.205
  H     -241.855     -51.683     189.598
  H     -241.000     -53.207     189.595
  H     -241.961     -52.742     188.212

 6  7  8  9  10  11  12  13  14  15  16  26  31  32  33  34  35 0
 6-311+G(2d,p)
 ****
 36  37 0
 6-311+G(2d,p)
 ****
 1  2  3  4  5  17  18  19  20  21  22  23  24  25 0
 3-21G
 ****
 27  28  29  30  38  39  40  41  42  43  44  45 0
 3-21G
 ****


