%nproc=1
%NoSave
%Mem=1900MB
#P OB98/GEN NMR

erre ene a

0 1
  C       85.081      62.913    -103.619
  O       85.226      61.638    -103.026
  H       85.701      62.984    -104.516
  H       84.034      63.052    -103.904
  H       85.361      63.695    -102.908
  P       86.705      61.220    -102.564
  C       86.221      62.030    -100.140
  O       87.031      62.155    -101.300
  C       87.102      61.666     -98.949
  O       88.176      62.625     -98.814
  C       86.366      61.678     -97.614
  O       85.648      60.480     -97.378
  C       87.531      61.821     -96.650
  O       88.203      60.557     -96.508
  C       88.428      62.821     -97.396
  N       88.871      66.410     -93.771
  C       89.295      65.129     -93.829
  N       89.155      64.246     -94.838
  C       88.512      64.806     -95.874
  C       88.027      66.100     -95.965
  C       88.223      66.925     -94.844
  N       87.765      68.220     -94.769
  N       87.402      66.301     -97.180
  C       87.527      65.154     -97.816
  N       88.161      64.209     -97.055
  O       87.646      61.824    -103.710
  O       86.929      59.764    -102.331
  H       88.249      60.156     -97.397
  H       88.542      61.441    -103.651
  H       89.809      64.765     -92.945
  H       87.167      64.956     -98.818
  H       89.495      62.644     -97.219
  H       87.217      62.133     -95.651
  H       85.716      62.556     -97.520
  H       87.554      60.685     -99.141
  H       85.481      61.241    -100.305
  H       87.823      68.678     -93.873
  H       87.157      68.563     -95.498
  H       85.706      62.976     -99.952
  P       84.370      60.560     -96.408
  C       82.533      60.731     -98.237
  O       83.250      61.392     -97.201
  O       84.849      61.577     -95.270
  O       83.930      59.248     -95.847
  H       84.441      61.356     -94.412
  H       81.827      61.408     -98.670
  H       82.016      59.887     -97.830
  H       83.218      60.401     -98.990

 6  7  8  9  10  11  12  13  14  15  25  28  32  33  34  35 0
 6-311+G(2d,p)
 ****
 36  39  40 0
 6-311+G(2d,p)
 ****
 1  2  3  4  5  16  17  18  19  20  21  22  23  24 0
 3-21G
 ****
 26  27  29  30  31  37  38  41  42  43  44  45  46  47 0
 3-21G
 ****
 48 0
 3-21G
 ****


