%nproc=1
%NoSave
%Mem=1900MB
#P OB98/GEN NMR

erre ene a

0 1
  C     -135.157    -231.295      36.075
  O     -134.142    -230.503      35.486
  P     -133.504    -230.893      34.069
  C     -131.148    -230.413      34.996
  O     -132.008    -231.383      34.407
  C     -130.371    -231.036      36.150
  O     -131.246    -231.958      36.849
  C     -129.143    -231.862      35.764
  O     -127.966    -231.108      35.559
  C     -128.977    -232.730      37.003
  O     -128.341    -231.967      38.048
  C     -130.435    -233.034      37.384
  N     -131.244    -237.981      38.428
  C     -130.806    -236.957      39.191
  N     -130.594    -235.664      38.836
  C     -130.938    -235.475      37.553
  C     -131.402    -236.422      36.649
  C     -131.558    -237.730      37.137
  N     -132.029    -238.768      36.361
  N     -131.627    -235.847      35.408
  C     -131.307    -234.575      35.569
  N     -130.895    -234.302      36.845
  O     -133.616    -229.835      33.023
  O     -134.242    -232.250      33.661
  H     -128.458    -232.470      38.878
  H     -134.118    -232.427      32.705
  H     -130.589    -237.198      40.231
  H     -131.357    -233.838      34.798
  H     -130.590    -233.053      38.474
  H     -128.363    -233.614      36.827
  H     -129.360    -232.511      34.899
  H     -130.093    -230.234      36.857
  H     -131.766    -229.589      35.385
  H     -132.233    -239.644      36.824
  H     -132.415    -238.551      35.454
  H     -130.472    -230.002      34.240
  P     -127.415    -230.993      34.048
  C     -125.205    -232.014      35.008
  O     -126.159    -231.986      33.968
  O     -127.162    -229.595      33.584
  O     -128.544    -231.763      33.196
  H     -128.605    -232.714      33.363
  H     -124.530    -232.864      34.851
  H     -125.688    -232.137      35.980
  H     -124.616    -231.095      35.005
  H     -135.445    -230.867      37.012
  H     -134.788    -232.287      36.235
  H     -136.005    -231.330      35.423

 3  4  5  6  7  8  9  10  11  12  22  25  29  30  31  32 0
 6-311+G(2d,p)
 ****
 33  36  37 0
 6-311+G(2d,p)
 ****
 1  2  13  14  15  16  17  18  19  20  21  23  24  26 0
 3-21G
 ****
 27  28  34  35  38  39  40  41  42  43  44  45  46  47  48 0
 3-21G
 ****


