%nproc=1
%NoSave
%Mem=1900MB
#P OB98/GEN NMR

erre ene a

0 1
  C      190.491      89.850     308.476
  O      189.414      90.774     308.319
  P      189.576      92.004     307.303
  C      189.893      93.897     309.025
  O      190.491      93.129     307.991
  C      190.792      95.087     309.414
  O      191.975      94.609     310.103
  C      191.250      95.909     308.198
  O      191.014      97.312     308.346
  C      192.702      95.496     308.022
  O      193.476      96.468     307.332
  C      193.136      95.160     309.455
  N      194.277      94.243     309.483
  C      195.533      94.805     309.290
  O      195.706      95.996     309.025
  N      196.594      93.936     309.345
  C      196.512      92.584     309.492
  O      197.489      91.843     309.490
  C      195.151      92.037     309.630
  C      194.116      92.880     309.620
  O      188.312      92.508     306.688
  O      190.556      91.407     306.177
  H      193.721      97.176     307.967
  H      190.254      91.748     305.310
  H      197.512      94.330     309.220
  H      195.047      90.966     309.727
  H      193.103      92.505     309.707
  H      193.433      96.067     309.997
  H      192.733      94.578     307.422
  H      190.688      95.641     307.297
  H      190.214      95.715     310.100
  H      189.746      93.269     309.904
  H      188.900      94.227     308.710
  P      189.839      98.112     307.614
  C      190.650      98.353     305.161
  O      189.811      97.670     306.074
  O      189.814      99.586     307.844
  O      188.512      97.438     308.213
  H      187.847      98.132     308.377
  H      190.255      98.208     304.152
  H      191.657      97.940     305.213
  H      190.679      99.426     305.375
  H      190.216      89.098     309.186
  H      191.359      90.370     308.825
  H      190.706      89.389     307.534

 3  4  5  6  7  8  9  10  11  12  13  23  28  29  30  31  32 0
 6-311+G(2d,p)
 ****
 33  34 0
 6-311+G(2d,p)
 ****
 1  2  14  15  16  17  18  19  20  21  22  24  25  26  27 0
 3-21G
 ****
 35  36  37  38  39  40  41  42  43  44  45 0
 3-21G
 ****


