%nproc=1
%NoSave
%Mem=1900MB
#P OB98/GEN NMR

erre ene a

0 1
  C      138.911    -187.635     292.423
  O      138.587    -186.827     291.297
  P      137.363    -187.280     290.367
  C      135.576    -186.523     292.088
  O      136.127    -187.599     291.341
  C      134.053    -186.623     292.159
  O      133.555    -185.613     293.076
  C      133.337    -186.413     290.818
  O      132.164    -187.235     290.828
  C      132.921    -184.954     290.879
  O      131.852    -184.659     289.983
  C      132.572    -184.831     292.361
  N      129.777    -180.622     293.138
  C      129.443    -181.852     292.692
  N      130.244    -182.922     292.513
  C      131.513    -182.627     292.843
  C      132.007    -181.407     293.277
  C      131.074    -180.368     293.427
  N      131.409    -179.116     293.890
  N      133.369    -181.485     293.489
  C      133.690    -182.727     293.188
  N      132.597    -183.458     292.818
  O      137.824    -188.728     289.862
  O      137.063    -186.375     289.223
  H      132.161    -184.837     289.073
  H      138.016    -188.700     288.904
  H      128.392    -181.996     292.455
  H      134.687    -183.140     293.221
  H      131.580    -185.245     292.590
  H      133.771    -184.314     290.616
  H      133.953    -186.638     289.942
  H      133.789    -187.601     292.583
  H      135.841    -185.583     291.595
  H      130.667    -178.470     294.100
  H      132.332    -178.974     294.289
  H      136.003    -186.522     293.095
  P      131.725    -187.891     289.433
  C      133.476    -189.756     289.869
  O      132.943    -188.815     288.957
  O      131.762    -186.656     288.415
  O      130.383    -188.545     289.464
  H      131.129    -186.806     287.688
  H      133.816    -190.633     289.313
  H      132.736    -190.071     290.613
  H      134.331    -189.309     290.386
  H      139.743    -187.207     292.942
  H      139.165    -188.621     292.093
  H      138.068    -187.685     293.081

 3  4  5  6  7  8  9  10  11  12  22  25  29  30  31  32 0
 6-311+G(2d,p)
 ****
 33  36  37 0
 6-311+G(2d,p)
 ****
 1  2  13  14  15  16  17  18  19  20  21  23  24  26 0
 3-21G
 ****
 27  28  34  35  38  39  40  41  42  43  44  45  46  47  48 0
 3-21G
 ****


