%nproc=1
%NoSave
%Mem=1900MB
#P OB98/GEN NMR

erre ene a

0 1
  C      304.285     -13.006    -316.862
  O      304.038     -14.384    -316.670
  H      305.253     -12.759    -316.418
  H      303.511     -12.416    -316.368
  H      304.316     -12.762    -317.927
  P      302.763     -14.997    -317.426
  C      302.749     -16.980    -315.749
  O      302.007     -15.933    -316.363
  C      302.262     -17.197    -314.318
  O      302.635     -16.077    -313.482
  C      300.750     -17.344    -314.185
  O      300.319     -18.667    -314.472
  C      300.568     -17.014    -312.712
  O      300.955     -18.146    -311.909
  C      301.566     -15.862    -312.521
  N      299.867     -11.650    -310.269
  C      300.370     -12.810    -309.714
  N      300.419     -12.865    -308.365
  N      300.784     -13.834    -310.417
  C      300.664     -13.645    -311.753
  C      300.186     -12.541    -312.420
  C      299.739     -11.416    -311.633
  O      299.309     -10.354    -312.071
  N      300.233     -12.718    -313.777
  C      300.716     -13.932    -313.934
  N      300.988     -14.543    -312.735
  O      303.410     -16.051    -318.449
  O      301.904     -14.009    -318.140
  H      300.841     -17.884    -310.976
  H      302.887     -16.052    -319.272
  H      299.552     -10.897    -309.681
  H      300.888     -14.413    -314.887
  H      302.014     -15.860    -311.523
  H      299.533     -16.778    -312.459
  H      300.070     -12.131    -307.765
  H      300.220     -16.604    -314.796
  H      300.815     -13.691    -307.936
  H      302.774     -18.087    -313.922
  H      303.809     -16.707    -315.733
  H      302.622     -17.896    -316.334
  P      298.752     -18.898    -314.734
  C      299.293     -21.231    -315.748
  O      298.551     -20.489    -314.779
  O      298.574     -18.463    -316.263
  O      297.842     -18.148    -313.826
  H      297.643     -18.211    -316.434
  H      299.057     -22.271    -315.658
  H      300.340     -21.088    -315.582
  H      299.038     -20.891    -316.730

 6  7  8  9  10  11  12  13  14  15  26  29  33  34 0
 6-311+G(2d,p)
 ****
 36  38  39  40  41 0
 6-311+G(2d,p)
 ****
 1  2  3  4  5  16  17  18  19  20  21  22  23  24  25 0
 3-21G
 ****
 27  28  30  31  32  35  37  42  43  44  45  46  47 0
 3-21G
 ****
 48  49 0
 3-21G
 ****


