%nproc=1
%NoSave
%Mem=1900MB
#P OB98/GEN NMR

erre ene a

0 1
  C      108.674     -95.903     -20.409
  O      107.969     -94.697     -20.631
  H      109.321     -95.773     -19.537
  H      109.293     -96.159     -21.272
  H      107.969     -96.715     -20.204
  P      107.162     -94.536     -22.011
  C      109.181     -93.374     -23.124
  O      108.289     -94.487     -23.158
  C      110.274     -93.509     -24.183
  O      110.892     -94.811     -24.120
  C      109.773     -93.385     -25.614
  O      109.292     -92.107     -25.962
  C      110.926     -93.987     -26.403
  O      111.980     -93.050     -26.628
  C      111.405     -95.101     -25.439
  N      111.009     -96.432     -25.891
  C      111.866     -97.046     -26.797
  O      112.891     -96.520     -27.231
  N      111.487     -98.290     -27.224
  C      110.342     -98.943     -26.877
  O      110.049    -100.052     -27.312
  C      109.454     -98.226     -25.945
  C      109.825     -97.022     -25.500
  O      106.192     -93.393     -22.065
  O      106.485     -95.968     -22.229
  H      112.641     -93.497     -27.189
  H      105.768     -95.925     -22.910
  H      112.103     -98.761     -27.870
  H      108.530     -98.707     -25.657
  H      109.187     -96.474     -24.808
  H      112.501     -95.086     -25.355
  H      110.606     -94.358     -27.379
  H      108.921     -94.068     -25.741
  H      111.048     -92.764     -23.968
  H      109.643     -93.347     -22.131
  H      108.616     -92.449     -23.278
  P      107.926     -91.859     -26.749
  C      109.277     -91.412     -28.944
  O      108.190     -92.082     -28.314
  O      107.123     -90.667     -26.334
  O      107.080     -93.176     -26.359
  H      106.138     -92.910     -26.307
  H      109.305     -91.674     -29.981
  H      110.195     -91.704     -28.478
  H      109.149     -90.354     -28.847

 6  7  8  9  10  11  12  13  14  15  16  26  31  32  33  34  35 0
 6-311+G(2d,p)
 ****
 36  37 0
 6-311+G(2d,p)
 ****
 1  2  3  4  5  17  18  19  20  21  22  23  24  25 0
 3-21G
 ****
 27  28  29  30  38  39  40  41  42  43  44  45 0
 3-21G
 ****


