%nproc=1
%NoSave
%Mem=1900MB
#P OB98/GEN NMR

erre ene a

0 1
  C      389.455    1056.599     544.836
  O      390.661    1055.815     544.758
  P      391.360    1055.613     543.340
  C      389.447    1054.082     542.441
  O      390.268    1055.216     542.225
  C      388.343    1053.972     541.356
  O      388.952    1053.665     540.054
  C      387.289    1052.877     541.627
  O      386.050    1053.340     541.082
  C      387.811    1051.706     540.800
  O      386.822    1050.741     540.512
  C      388.332    1052.459     539.556
  N      389.272    1051.675     538.745
  C      388.832    1051.237     537.503
  O      387.691    1051.388     537.071
  N      389.780    1050.561     536.757
  C      391.049    1050.259     537.135
  O      391.830    1049.623     536.441
  C      391.450    1050.722     538.474
  C      390.548    1051.407     539.203
  O      392.146    1054.228     543.549
  O      392.311    1056.684     542.922
  H      386.085    1051.205     540.053
  H      393.043    1054.299     543.198
  H      389.490    1050.242     535.854
  H      392.458    1050.518     538.814
  H      390.828    1051.787     540.191
  H      387.488    1052.766     538.943
  H      388.632    1051.219     541.344
  H      387.187    1052.632     542.704
  H      387.864    1054.954     541.255
  H      388.970    1054.145     543.419
  H      390.065    1053.173     542.427
  P      384.949    1053.939     542.094
  C      384.118    1051.493     542.582
  O      384.540    1052.756     543.096
  O      383.679    1054.058     541.133
  O      385.324    1055.253     542.728
  H      383.561    1053.264     540.560
  H      384.719    1051.207     541.725
  H      383.076    1051.568     542.285
  H      384.210    1050.751     543.370
  H      389.118    1056.635     545.851
  H      388.699    1056.152     544.225
  H      389.652    1057.592     544.490

 3  4  5  6  7  8  9  10  11  12  13  23  28  29  30  31  32 0
 6-311+G(2d,p)
 ****
 33  34 0
 6-311+G(2d,p)
 ****
 1  2  14  15  16  17  18  19  20  21  22  24  25  26 0
 3-21G
 ****
 27  35  36  37  38  39  40  41  42  43  44  45 0
 3-21G
 ****


