%nproc=1
%NoSave
%Mem=1900MB
#P OB98/GEN NMR

erre ene a

0 1
  C      152.634     202.470     411.245
  O      152.373     203.440     412.238
  H      153.716     202.350     411.151
  H      152.237     202.804     410.286
  H      152.200     201.504     411.511
  P      150.873     203.604     412.783
  C      152.003     204.677     414.840
  O      150.926     204.743     413.913
  C      151.742     205.583     416.048
  O      151.671     206.965     415.591
  C      150.426     205.273     416.782
  O      150.624     205.598     418.163
  C      149.475     206.263     416.138
  O      148.313     206.444     416.915
  C      150.390     207.482     415.989
  N      149.870     208.460     415.033
  C      149.357     209.641     415.567
  O      149.301     209.865     416.778
  N      148.862     210.542     414.663
  C      148.781     210.355     413.312
  O      148.295     211.183     412.551
  C      149.293     209.072     412.814
  C      149.807     208.194     413.678
  O      150.190     202.343     413.197
  O      150.097     204.335     411.589
  H      148.552     206.782     417.808
  H      149.157     204.073     411.589
  H      148.499     211.405     415.032
  H      149.230     208.887     411.746
  H      150.199     207.243     413.340
  H      150.514     207.997     416.954
  H      149.155     205.908     415.155
  H      150.104     204.235     416.676
  H      152.600     205.513     416.727
  H      152.912     205.003     414.319
  H      152.137     203.644     415.172
  P      150.998     204.488     419.256
  C      152.829     205.187     420.937
  O      151.441     205.228     420.615
  O      151.976     203.459     418.776
  O      149.605     203.803     419.645
  H      149.757     202.884     419.929
  H      152.998     205.709     421.856
  H      153.391     205.652     420.154
  H      153.141     204.169     421.043

 6  7  8  9  10  11  12  13  14  15  16  26  31  32  33  34  35 0
 6-311+G(2d,p)
 ****
 36  37 0
 6-311+G(2d,p)
 ****
 1  2  3  4  5  17  18  19  20  21  22  23  24  25 0
 3-21G
 ****
 27  28  29  30  38  39  40  41  42  43  44  45 0
 3-21G
 ****


