%nproc=1
%NoSave
%Mem=1900MB
#P OB98/GEN NMR

erre ene a

0 1
  C        2.366     461.630    -894.410
  O        3.579     462.343    -894.240
  H        2.609     460.607    -894.710
  H        1.764     462.096    -895.210
  H        1.788     461.591    -893.490
  P        3.528     463.823    -893.640
  C        4.631     465.097    -895.610
  O        3.424     464.824    -894.900
  C        4.394     466.209    -896.640
  O        3.507     465.726    -897.700
  C        3.675     467.442    -896.060
  O        4.612     468.251    -895.310
  C        3.166     468.100    -897.330
  O        4.198     468.840    -897.990
  C        2.731     466.850    -898.180
  N        1.292     466.586    -898.110
  C        0.533     467.133    -899.110
  O        0.997     467.890    -900.000
  N       -0.817     466.881    -899.030
  C       -1.456     466.200    -898.040
  O       -2.701     466.051    -898.000
  C       -0.581     465.657    -896.990
  C        0.729     465.845    -897.080
  O        4.600     464.166    -892.640
  O        2.065     463.902    -892.980
  H        3.841     469.116    -898.840
  H        2.139     463.862    -892.000
  H       -1.421     467.309    -899.740
  H       -1.062     465.087    -896.190
  H        1.380     465.440    -896.320
  H        3.048     466.993    -899.220
  H        2.333     468.789    -897.130
  H        2.824     467.127    -895.440
  H        5.356     466.486    -897.080
  H        4.970     464.179    -896.130
  H        5.415     465.413    -894.890
  P        4.044     469.315    -894.230
  C        5.121     471.554    -894.910
  O        3.915     470.742    -894.930
  O        4.743     469.297    -892.910
  O        2.492     468.842    -894.030
  H        2.344     468.596    -893.090
  H        4.932     472.486    -895.401
  H        5.908     471.036    -895.418
  H        5.411     471.738    -893.896

 6  7  8  9  10  11  12  13  14  15  16  26  31  32  33  34  35 0
 6-311+G(2d,p)
 ****
 36  37 0
 6-311+G(2d,p)
 ****
 1  2  3  4  5  17  18  19  20  21  22  23  24  25 0
 3-21G
 ****
 27  28  29  30  38  39  40  41  42  43  44  45 0
 3-21G
 ****


