%nproc=1
%NoSave
%Mem=1900MB
#P OB98/GEN NMR

erre ene a

0 1
  C       44.004    -334.524     -35.927
  O       45.134    -335.299     -36.268
  H       44.240    -333.938     -35.034
  H       43.154    -335.173     -35.702
  H       43.744    -333.838     -36.736
  P       45.114    -336.129     -37.639
  C       44.875    -338.327     -36.314
  O       45.618    -337.611     -37.295
  C       44.482    -339.697     -36.859
  O       43.627    -339.543     -38.014
  C       45.663    -340.531     -37.338
  O       46.389    -341.076     -36.253
  C       44.956    -341.547     -38.218
  O       44.404    -342.613     -37.437
  C       43.834    -340.699     -38.855
  N       44.155    -340.304     -40.226
  C       43.877    -341.240     -41.216
  O       43.381    -342.340     -40.990
  N       44.250    -340.890     -42.487
  C       44.981    -339.789     -42.826
  O       45.503    -339.640     -43.926
  C       45.190    -338.807     -41.751
  C       44.785    -339.110     -40.517
  O       45.796    -335.480     -38.797
  O       43.552    -336.342     -37.926
  H       43.263    -335.709     -38.611
  H       43.776    -342.191     -36.815
  H       44.090    -341.583     -43.205
  H       45.703    -337.885     -41.997
  H       44.959    -338.417     -39.700
  H       42.890    -341.258     -38.865
  H       45.637    -341.987     -38.948
  H       46.322    -339.917     -37.963
  H       43.916    -340.229     -36.084
  H       43.970    -337.757     -36.074
  H       45.484    -338.428     -35.410
  P       47.782    -340.427     -35.806
  C       49.404    -341.517     -37.475
  O       48.951    -341.476     -36.126
  O       47.808    -339.863     -34.425
  O       48.038    -339.275     -36.891
  H       48.251    -338.445     -36.424
  H       50.179    -342.248     -37.569
  H       49.784    -340.556     -37.753
  H       48.589    -341.777     -38.117

 6  7  8  9  10  11  12  13  14  15  16  27  31  32  33  34  35 0
 6-311+G(2d,p)
 ****
 36  37 0
 6-311+G(2d,p)
 ****
 1  2  3  4  5  17  18  19  20  21  22  23  24  25 0
 3-21G
 ****
 26  28  29  30  38  39  40  41  42  43  44  45 0
 3-21G
 ****


