%nproc=1
%NoSave
%Mem=1900MB
#P OB98/GEN NMR

erre ene a

0 1
  C       63.150      77.867    -106.549
  O       62.974      76.501    -106.872
  H       62.167      78.311    -106.369
  H       63.621      78.394    -107.383
  H       63.755      77.977    -105.646
  P       64.272      75.585    -107.089
  C       65.335      75.239    -104.774
  O       64.450      74.713    -105.751
  C       65.661      74.182    -103.719
  O       66.832      74.609    -102.977
  C       64.527      73.947    -102.715
  O       64.482      72.555    -102.400
  C       64.969      74.731    -101.494
  O       64.421      74.208    -100.286
  C       66.490      74.610    -101.577
  N       68.496      76.061     -97.173
  C       67.976      74.840     -97.557
  N       67.966      73.863     -96.625
  N       67.506      74.598     -98.752
  C       67.592      75.661     -99.590
  C       68.081      76.919     -99.330
  C       68.588      77.179     -97.998
  O       69.046      78.242     -97.595
  N       67.974      77.732    -100.430
  C       67.417      76.967    -101.351
  N       67.156      75.705    -100.888
  O       65.505      76.312    -107.521
  O       63.808      74.505    -108.171
  H       64.664      73.257    -100.248
  H       64.131      74.746    -109.060
  H       68.836      76.196     -96.237
  H       67.175      77.277    -102.360
  H       66.861      73.679    -101.128
  H       64.652      75.777    -101.591
  H       68.326      73.972     -95.690
  H       63.552      74.277    -103.087
  H       67.611      72.952     -96.892
  H       65.931      73.251    -104.232
  H       64.852      76.099    -104.298
  H       66.257      75.577    -105.262
  P       63.115      71.752    -102.641
  C       63.557      70.753    -104.976
  O       63.434      70.491    -103.581
  O       61.946      72.580    -103.061
  O       62.854      71.063    -101.215
  H       61.889      70.964    -101.085
  H       63.768      69.840    -105.493
  H       64.354      71.448    -105.139
  H       62.641      71.167    -105.343

 6  7  8  9  10  11  12  13  14  15  26  29  33  34 0
 6-311+G(2d,p)
 ****
 36  38  39  40  41 0
 6-311+G(2d,p)
 ****
 1  2  3  4  5  16  17  18  19  20  21  22  23  24  25 0
 3-21G
 ****
 27  28  30  31  32  35  37  42  43  44  45  46  47 0
 3-21G
 ****
 48  49 0
 3-21G
 ****


