%nproc=1
%NoSave
%Mem=1900MB
#P OB98/GEN NMR

erre ene a

0 1
  C      207.516     167.509    -347.661
  O      208.523     166.988    -346.792
  P      208.385     165.494    -346.232
  C      210.102     163.737    -345.418
  O      209.712     165.107    -345.420
  C      211.433     163.572    -344.677
  O      212.549     164.027    -345.480
  C      211.509     164.403    -343.402
  O      210.680     164.003    -342.330
  C      213.005     164.459    -343.141
  O      213.465     163.289    -342.466
  C      213.569     164.512    -344.582
  N      214.015     165.857    -344.963
  C      215.280     166.226    -344.519
  O      215.985     165.507    -343.811
  N      215.700     167.476    -344.890
  C      214.982     168.380    -345.610
  O      215.397     169.498    -345.896
  C      213.639     167.942    -346.030
  C      213.226     166.718    -345.692
  O      207.920     164.474    -347.216
  O      207.302     165.660    -345.050
  H      214.413     163.414    -342.277
  H      206.699     164.892    -345.092
  H      216.617     167.756    -344.584
  H      213.039     168.636    -346.600
  H      212.240     166.376    -345.993
  H      214.427     163.836    -344.682
  H      213.273     165.315    -342.515
  H      211.194     165.426    -343.651
  H      211.588     162.511    -344.472
  H      210.195     163.376    -346.446
  H      209.310     163.141    -344.954
  P      209.271     164.698    -342.004
  C      207.418     164.351    -340.225
  O      208.776     164.186    -340.568
  O      208.258     164.749    -343.097
  O      209.735     166.200    -341.667
  H      209.031     166.814    -341.954
  H      207.266     163.962    -339.211
  H      206.775     163.795    -340.910
  H      207.150     165.410    -340.232
  H      207.767     168.512    -347.936
  H      206.572     167.503    -347.157
  H      207.455     166.903    -348.540

 3  4  5  6  7  8  9  10  11  12  13  23  28  29  30  31  32 0
 6-311+G(2d,p)
 ****
 33  34 0
 6-311+G(2d,p)
 ****
 1  2  14  15  16  17  18  19  20  21  22  24  25  26  27 0
 3-21G
 ****
 35  36  37  38  39  40  41  42  43  44  45 0
 3-21G
 ****


