%nproc=1
%NoSave
%Mem=1900MB
#P OB98/GEN NMR

erre ene a

0 1
  C       66.788      98.495      25.173
  O       68.048      98.597      24.542
  H       66.319      97.558      24.864
  H       66.139      99.324      24.877
  H       66.907      98.482      26.259
  P       68.893      99.947      24.742
  C       70.514      98.587      26.237
  O       69.671      99.724      26.132
  C       70.934      98.374      27.689
  O       71.617      97.113      27.851
  C       71.908      99.414      28.234
  O       71.301     100.666      28.509
  C       72.375      98.704      29.494
  O       71.353      98.792      30.502
  C       72.524      97.250      28.982
  N       73.891      96.923      28.582
  C       74.772      96.555      29.607
  O       74.391      96.517      30.776
  N       76.079      96.275      29.287
  C       76.475      96.372      28.057
  N       77.791      96.130      27.801
  C       75.578      96.739      26.945
  C       74.315      97.004      27.274
  O       68.128     101.227      24.637
  O       70.087      99.830      23.683
  H       71.711      98.379      31.309
  H       70.633     100.650      23.760
  H       75.962      96.814      25.938
  H       73.600      97.297      26.515
  H       72.197      96.534      29.744
  H       73.288      99.131      29.918
  H       72.765      99.535      27.563
  H       70.019      98.323      28.294
  H       78.385      95.923      28.593
  H       71.386      98.749      25.596
  H       78.229      96.450      26.944
  H       69.984      97.693      25.896
  P       72.245     101.965      28.552
  C       71.901     102.016      25.970
  O       72.793     102.184      27.059
  O       73.527     101.448      29.353
  O       71.637     103.187      29.165
  H       73.451     101.650      30.307
  H       72.421     102.197      25.052
  H       71.090     102.708      26.063
  H       71.519     101.016      25.973

 6  7  8  9  10  11  12  13  14  15  16  26  30  31  32  33  35 0
 6-311+G(2d,p)
 ****
 37  38 0
 6-311+G(2d,p)
 ****
 1  2  3  4  5  17  18  19  20  21  22  23  24  25 0
 3-21G
 ****
 27  28  29  34  36  39  40  41  42  43  44  45  46 0
 3-21G
 ****


