%nproc=1
%NoSave
%Mem=1900MB
#P OB98/GEN NMR

erre ene a

0 1
  C      -69.290     409.519    -653.928
  O      -69.721     410.089    -652.705
  H      -69.332     408.432    -653.844
  H      -68.268     409.825    -654.148
  H      -69.954     409.836    -654.744
  P      -69.756     411.693    -652.634
  C      -72.132     411.579    -653.703
  O      -71.308     412.111    -652.663
  C      -73.517     412.204    -653.619
  O      -74.347     411.472    -652.691
  C      -73.522     413.652    -653.109
  O      -73.137     414.582    -654.125
  C      -74.971     413.792    -652.665
  O      -75.838     414.118    -653.763
  C      -75.301     412.404    -652.120
  N      -77.898     411.065    -647.937
  C      -78.175     410.931    -649.258
  N      -77.421     411.294    -650.312
  C      -76.261     411.848    -649.893
  C      -75.845     412.048    -648.583
  C      -76.728     411.626    -647.573
  N      -76.456     411.785    -646.221
  N      -74.606     412.675    -648.561
  C      -74.281     412.848    -649.826
  N      -75.252     412.340    -650.671
  O      -69.216     412.132    -654.073
  O      -68.955     412.293    -651.526
  H      -75.456     413.645    -654.542
  H      -68.273     412.383    -654.002
  H      -79.135     410.449    -649.490
  H      -73.377     413.306    -650.194
  H      -76.299     412.061    -652.433
  H      -75.069     414.589    -651.921
  H      -72.868     413.734    -652.233
  H      -74.001     412.138    -654.614
  H      -72.222     410.485    -653.584
  H      -71.666     411.800    -654.669
  H      -77.158     411.536    -645.568
  H      -75.631     412.309    -645.955
  P      -72.690     416.033    -653.635
  C      -70.277     415.619    -654.552
  O      -71.421     416.461    -654.523
  O      -72.060     415.790    -652.180
  O      -73.798     417.048    -653.601
  H      -72.263     416.553    -651.602
  H      -69.532     416.051    -655.187
  H      -70.552     414.656    -654.929
  H      -69.885     415.515    -653.562

 6  7  8  9  10  11  12  13  14  15  25  28  32  33  34  35 0
 6-311+G(2d,p)
 ****
 36  37  40 0
 6-311+G(2d,p)
 ****
 1  2  3  4  5  16  17  18  19  20  21  22  23  24 0
 3-21G
 ****
 26  27  29  30  31  38  39 41  42  43  44  45  46  47  48 0
 3-21G
 ****


