%nproc=1
%NoSave
%Mem=1900MB
#P OB98/GEN NMR

erre ene a

0 1
  C      -10.268      81.316      33.790
  O       -9.138      81.217      32.945
  H      -10.286      80.448      34.453
  H      -11.186      81.325      33.196
  H      -10.203      82.222      34.397
  P       -8.946      82.385      31.862
  C      -10.397      83.120      29.848
  O      -10.041      82.067      30.734
  C      -11.674      82.772      29.090
  O      -12.779      82.651      30.003
  C      -12.089      83.805      28.051
  O      -11.384      83.601      26.838
  C      -13.568      83.481      27.895
  O      -13.725      82.354      27.011
  C      -13.983      83.088      29.323
  N      -18.418      85.218      30.785
  C      -18.139      84.279      29.856
  N      -16.933      83.800      29.480
  C      -15.949      84.384      30.184
  C      -16.083      85.358      31.161
  C      -17.389      85.775      31.463
  N      -17.671      86.735      32.411
  N      -14.851      85.725      31.661
  C      -13.995      84.942      31.039
  N      -14.604      84.139      30.108
  O       -7.551      82.600      31.383
  O       -9.598      83.627      32.635
  H      -13.495      82.664      26.115
  H      -10.404      83.351      33.106
  H      -18.997      83.858      29.342
  H      -12.929      84.902      31.237
  H      -14.683      82.245      29.323
  H      -14.135      84.307      27.461
  H      -11.984      84.828      28.429
  H      -11.531      81.788      28.623
  H       -9.584      83.306      29.137
  H      -18.607      87.108      32.425
  H      -16.896      87.237      32.819
  H      -10.544      84.023      30.448
  P      -11.241      84.776      25.755
  C      -12.918      86.311      24.553
  O      -12.746      85.131      25.329
  O      -10.304      84.477      24.638
  O      -10.801      86.051      26.612
  H      -10.436      86.739      26.022
  H      -13.956      86.444      24.331
  H      -12.367      86.221      23.640
  H      -12.561      87.156      25.104

 6  7  8  9  10  11  12  13  14  15  25  28  32  33  34  35 0
 6-311+G(2d,p)
 ****
 36  39  40 0
 6-311+G(2d,p)
 ****
 1  2  3  4  5  16  17  18  19  20  21  22  23  24 0
 3-21G
 ****
 26  27  29  30  31  37  38  41  42  43  44  45  46  47 0
 3-21G
 ****
 48 0
 3-21G
 ****


