%nproc=1
%NoSave
%Mem=1900MB
#P OB98/GEN NMR

erre ene a

0 1
  C     -328.051     538.006      81.674
  O     -327.031     538.207      82.640
  P     -325.520     538.379      82.110
  C     -324.726     536.159      83.283
  O     -324.900     536.900      82.083
  C     -324.092     534.800      82.972
  O     -325.097     533.890      82.485
  C     -323.021     534.829      81.892
  O     -321.789     535.346      82.383
  C     -322.978     533.364      81.479
  O     -322.195     532.600      82.411
  C     -324.462     532.965      81.579
  N     -325.145     532.940      80.284
  C     -325.146     531.719      79.609
  O     -324.612     530.704      80.061
  N     -325.769     531.713      78.390
  C     -326.318     532.794      77.765
  O     -326.827     532.745      76.649
  C     -326.258     534.064      78.500
  C     -325.682     534.077      79.714
  O     -324.844     539.083      83.375
  O     -325.433     539.143      80.833
  H     -325.300     538.854      84.204
  H     -321.265     532.861      82.269
  H     -325.802     530.835      77.895
  H     -326.673     534.945      78.037
  H     -325.623     535.005      80.268
  H     -324.559     531.967      82.032
  H     -322.537     533.220      80.483
  H     -323.358     535.445      81.046
  H     -323.687     534.392      83.908
  H     -325.701     536.011      83.756
  H     -324.088     536.732      83.960
  P     -320.631     535.601      81.295
  C     -319.091     533.873      82.515
  O     -319.701     534.296      81.316
  O     -319.762     536.724      82.030
  O     -321.153     536.001      79.952
  H     -319.632     536.541      82.983
  H     -318.811     532.823      82.417
  H     -319.767     533.988      83.368
  H     -318.185     534.468      82.691
  H     -328.995     537.909      82.167
  H     -327.846     537.115      81.118
  H     -328.081     538.843      81.008

 3  4  5  6  7  8  9  10  11  12  13  24  28  29  30  31  32 0
 6-311+G(2d,p)
 ****
 33  34 0
 6-311+G(2d,p)
 ****
 1  2  14  15  16  17  18  19  20  21  22  23  25  26  27 0
 3-21G
 ****
 35  36  37  38  39  40  41  42  43  44  45 0
 3-21G
 ****


