%nproc=1
%NoSave
%Mem=1900MB
#P OB98/GEN NMR

erre ene a

0 1
  C     -860.090    -829.313     334.097
  O     -861.071    -830.322     333.875
  P     -862.510    -830.275     334.593
  C     -862.545    -832.385     336.052
  O     -862.914    -831.785     334.818
  C     -863.239    -833.742     336.207
  O     -864.664    -833.532     336.315
  C     -863.017    -834.710     335.068
  O     -861.721    -835.286     335.123
  C     -864.183    -835.666     335.271
  O     -863.893    -836.616     336.293
  C     -865.313    -834.728     335.751
  N     -866.231    -834.347     334.698
  C     -867.451    -835.001     334.667
  O     -867.752    -835.863     335.534
  N     -868.389    -834.669     333.714
  C     -868.116    -833.793     332.821
  N     -869.074    -833.451     331.911
  C     -866.785    -833.101     332.761
  C     -865.918    -833.422     333.709
  O     -863.527    -829.440     333.882
  O     -862.183    -829.774     336.065
  H     -864.728    -837.026     336.563
  H     -862.182    -828.783     336.156
  H     -866.606    -832.362     331.968
  H     -864.955    -832.937     333.765
  H     -865.877    -835.190     336.568
  H     -864.447    -836.226     334.357
  H     -863.145    -834.176     334.102
  H     -862.910    -834.194     337.182
  H     -869.999    -833.810     332.116
  H     -862.870    -831.709     336.873
  H     -869.033    -832.571     331.418
  H     -861.467    -832.492     336.108
  P     -860.832    -835.208     333.796
  C     -861.034    -837.752     333.293
  O     -860.170    -836.678     333.626
  O     -859.583    -834.280     334.240
  O     -861.535    -834.669     332.587
  H     -859.720    -833.368     333.907
  H     -860.430    -838.602     332.978
  H     -861.708    -837.471     332.467
  H     -861.631    -838.032     334.185
  H     -859.213    -829.537     333.526
  H     -859.840    -829.281     335.137
  H     -860.480    -828.364     333.795

 3  4  5  6  7  8  9  10  11  12  13  23  27  28  29  30  32 0
 6-311+G(2d,p)
 ****
 34  35 0
 6-311+G(2d,p)
 ****
 1  2  14  15  16  17  18  19  20  21  22  24  25  26 0
 3-21G
 ****
 31  33  36  37  38  39  40  41  42  43  44  45  46 0
 3-21G
 ****


