%nproc=1
%NoSave
%Mem=1900MB
#P OB98/GEN NMR

erre ene a

0 1
  C     -959.830    -237.069    -688.823
  O     -958.987    -237.535    -687.775
  P     -957.916    -238.706    -688.040
  C     -958.005    -241.288    -687.919
  O     -958.743    -240.081    -687.952
  C     -958.943    -242.508    -687.956
  O     -959.719    -242.528    -686.731
  C     -959.966    -242.478    -689.124
  O     -960.162    -243.807    -689.540
  C     -961.210    -241.907    -688.484
  O     -962.384    -242.241    -689.207
  C     -961.114    -242.524    -687.088
  N     -961.903    -241.819    -686.096
  C     -962.889    -242.542    -685.416
  O     -963.095    -243.736    -685.669
  N     -963.654    -241.903    -684.468
  C     -963.488    -240.622    -684.257
  N     -964.219    -240.047    -683.251
  C     -962.527    -239.804    -685.025
  C     -961.777    -240.457    -685.896
  O     -956.697    -238.645    -687.156
  O     -957.579    -238.598    -689.608
  H     -962.516    -243.211    -689.163
  H     -956.890    -237.933    -689.809
  H     -962.457    -238.731    -684.834
  H     -961.035    -239.935    -686.495
  H     -961.425    -243.596    -687.116
  H     -961.146    -240.800    -688.435
  H     -959.588    -241.882    -689.986
  H     -958.341    -243.409    -687.997
  H     -964.714    -240.683    -682.642
  H     -957.427    -241.325    -686.981
  H     -963.918    -239.166    -682.819
  H     -957.282    -241.322    -688.743
  P     -960.729    -244.099    -691.033
  C     -962.907    -245.180    -691.963
  O     -962.273    -244.502    -690.887
  O     -960.036    -245.510    -691.382
  O     -960.393    -243.097    -692.076
  H     -959.972    -245.586    -692.348
  H     -963.962    -245.372    -691.685
  H     -962.422    -246.125    -692.168
  H     -962.889    -244.540    -692.864
  H     -960.467    -236.294    -688.450
  H     -960.428    -237.879    -689.187
  H     -959.229    -236.684    -689.620

 3  4  5  6  7  8  9  10  11  12  13  23  27  28  29  30  32 0
 6-311+G(2d,p)
 ****
 34  35 0
 6-311+G(2d,p)
 ****
 1  2  14  15  16  17  18  19  20  21  22  24  25  26 0
 3-21G
 ****
 31  33  36  37  38  39  40  41  42  43  44  45  46 0
 3-21G
 ****


