%nproc=1
%NoSave
%Mem=1900MB
#P OB98/GEN NMR

erre ene a

0 1
  C     -227.121      -0.271    -160.494
  O     -226.912       0.870    -159.676
  P     -225.730       0.808    -158.596
  C     -227.391       1.498    -156.737
  O     -226.162       1.779    -157.391
  C     -227.253       1.649    -155.227
  O     -228.570       1.544    -154.618
  C     -226.352       0.593    -154.566
  O     -225.506       1.231    -153.601
  C     -227.335      -0.286    -153.809
  O     -226.722      -0.940    -152.705
  C     -228.395       0.746    -153.431
  N     -230.571      -2.709    -150.459
  C     -229.273      -2.236    -150.458
  N     -228.422      -2.811    -149.579
  N     -228.845      -1.291    -151.251
  C     -229.811      -0.787    -152.059
  C     -231.131      -1.164    -152.143
  C     -231.577      -2.253    -151.302
  O     -232.690      -2.778    -151.318
  N     -231.805      -0.409    -153.069
  C     -230.898       0.419    -153.547
  N     -229.659       0.197    -152.997
  O     -224.544       1.602    -159.319
  O     -225.300      -0.563    -158.199
  H     -226.461      -0.246    -152.067
  H     -223.747       1.035    -159.367
  H     -230.842      -3.450    -149.837
  H     -231.084       1.171    -154.304
  H     -228.024       1.402    -152.631
  H     -227.735      -1.046    -154.490
  H     -228.696      -3.517    -148.913
  H     -225.741       0.019    -155.271
  H     -227.474      -2.461    -149.548
  H     -226.883       2.661    -155.011
  H     -227.696       0.472    -156.969
  H     -228.157       2.185    -157.115
  P     -223.996       1.523    -154.072
  C     -223.610      -0.943    -153.329
  O     -223.103       0.376    -153.401
  O     -223.603       2.840    -153.255
  O     -223.846       1.695    -155.548
  H     -222.895       3.330    -153.714
  H     -224.532      -1.063    -153.903
  H     -223.812      -1.188    -152.282
  H     -222.858      -1.634    -153.716
  H     -227.936      -0.087    -161.162
  H     -227.349      -1.115    -159.877
  H     -226.235      -0.472    -161.060

 3  4  5  6  7  8  9  10  11  12  23  26  30  31  33  0
 6-311+G(2d,p)
 ****
 35  36  37  38 0
 6-311+G(2d,p)
 ****
 1  2  13  14  15  16  17  18  19  20  21  22  24  25  27  28  29 0
 3-21G
 ****
 32  34  39  40  41  42  43  44  45  46  47  48  49 0
 3-21G
 ****


