%nproc=1
%NoSave
%Mem=1900MB
#P OB98/GEN NMR

erre ene a

0 1
  C     -162.288    -603.033     735.422
  O     -163.447    -602.247     735.284
  H     -161.957    -602.992     736.472
  H     -161.478    -602.667     734.790
  H     -162.509    -604.088     735.180
  P     -163.986    -601.941     733.800
  C     -162.451    -599.899     733.391
  O     -163.784    -600.360     733.594
  C     -162.439    -598.495     732.771
  O     -163.165    -598.486     731.521
  C     -163.128    -597.438     733.641
  O     -162.438    -597.132     734.813
  C     -163.433    -596.342     732.616
  O     -162.355    -595.446     732.422
  C     -163.679    -597.159     731.332
  N     -165.085    -597.165     730.935
  C     -165.443    -596.209     729.983
  O     -164.658    -595.394     729.499
  N     -166.774    -596.197     729.630
  C     -167.743    -596.987     730.151
  O     -168.916    -596.895     729.817
  C     -167.307    -597.951     731.190
  C     -166.013    -597.995     731.516
  O     -165.370    -602.428     733.496
  O     -162.856    -602.573     732.852
  H     -162.219    -594.990     733.287
  H     -163.185    -602.692     731.938
  H     -167.041    -595.532     728.926
  H     -168.055    -598.602     731.632
  H     -165.657    -598.698     732.278
  H     -163.089    -596.732     730.498
  H     -164.298    -595.748     732.928
  H     -164.115    -597.846     733.940
  H     -161.401    -598.211     732.574
  H     -161.967    -600.595     732.711
  H     -161.917    -599.902     734.349
  P     -163.052    -597.330     736.272
  C     -163.149    -594.867     737.100
  O     -162.525    -596.128     737.231
  O     -163.068    -598.727     736.826
  O     -164.589    -596.886     736.030
  H     -165.163    -597.445     736.603
  H     -162.706    -594.177     737.787
  H     -164.193    -594.962     737.314
  H     -163.021    -594.508     736.100

 6  7  8  9  10  11  12  13  14  15  16  26  31  32  33  34  35 0
 6-311+G(2d,p)
 ****
 36  37 0
 6-311+G(2d,p)
 ****
 1  2  3  4  5  17  18  19  20  21  22  23  24  25 0
 3-21G
 ****
 27  28  29  30  38  39  40  41  42  43  44  45 0
 3-21G
 ****


