%nproc=1
%NoSave
%Mem=1900MB
#P OB98/GEN NMR

erre ene a

0 1
  C     -247.106     216.334     -11.790
  O     -247.165     217.663     -11.315
  H     -248.025     216.117     -12.342
  H     -247.035     215.638     -10.949
  H     -246.254     216.195     -12.461
  P     -245.864     218.298     -10.625
  C     -245.157     220.641      -9.791
  O     -246.204     219.832     -10.311
  C     -245.621     222.098      -9.648
  O     -245.586     222.732     -10.968
  C     -247.059     222.258      -9.102
  O     -247.095     223.500      -8.377
  C     -247.850     222.346     -10.397
  O     -249.172     222.764     -10.195
  C     -246.917     223.266     -11.195
  N     -247.191     223.348     -12.628
  C     -247.803     224.509     -13.096
  O     -248.126     225.470     -12.398
  N     -248.054     224.540     -14.448
  C     -247.743     223.559     -15.349
  O     -247.965     223.660     -16.555
  C     -247.105     222.359     -14.789
  C     -246.861     222.314     -13.478
  O     -244.572     218.074     -11.343
  O     -245.849     217.634      -9.165
  H     -245.190     216.915      -9.141
  H     -249.660     222.718     -11.047
  H     -248.492     225.373     -14.810
  H     -246.858     221.555     -15.473
  H     -246.379     221.441     -13.036
  H     -246.934     224.274     -10.768
  H     -247.910     221.356     -10.862
  H     -247.360     221.438      -8.440
  H     -244.896     222.639      -9.016
  H     -244.312     220.593     -10.489
  H     -244.848     220.250      -8.823
  P     -246.662     223.640      -6.838
  C     -246.135     225.579      -5.204
  O     -246.742     225.192      -6.436
  O     -245.343     223.004      -6.515
  O     -247.849     222.965      -5.997
  H     -247.500     222.637      -5.148
  H     -246.260     226.632      -5.060
  H     -245.091     225.345      -5.231
  H     -246.598     225.051      -4.397

 6  7  8  9  10  11  12  13  14  15  16  27  31  32  33  34  35 0
 6-311+G(2d,p)
 ****
 36  37 0
 6-311+G(2d,p)
 ****
 1  2  3  4  5  17  18  19  20  21  22  23  24  25 0
 3-21G
 ****
 26  28  29  30  38  39  40  41  42  43  44  45 0
 3-21G
 ****


