%nproc=1
%NoSave
%Mem=1900MB
#P OB98/GEN NMR

erre ene a

0 1
  C      300.533    -268.186    -897.770
  O      299.763    -267.401    -896.880
  H      300.973    -269.029    -897.240
  H      299.880    -268.565    -898.560
  H      301.318    -267.575    -898.220
  P      300.524    -266.776    -895.620
  C      299.926    -264.311    -896.160
  O      300.955    -265.282    -896.020
  C      300.480    -262.912    -895.880
  O      300.656    -262.767    -894.450
  C      301.830    -262.614    -896.560
  O      301.714    -261.463    -897.390
  C      302.769    -262.273    -895.410
  O      303.647    -261.191    -895.700
  C      301.818    -261.937    -894.260
  N      305.723    -260.701    -891.230
  C      305.132    -260.033    -892.260
  N      304.034    -260.366    -892.950
  C      303.500    -261.518    -892.480
  C      303.975    -262.290    -891.430
  C      305.147    -261.840    -890.810
  N      305.774    -262.547    -889.790
  N      303.163    -263.397    -891.240
  C      302.256    -263.312    -892.190
  N      302.430    -262.205    -892.980
  O      301.915    -267.574    -895.600
  O      299.804    -266.891    -894.320
  H      304.217    -261.481    -896.430
  H      302.103    -267.891    -894.690
  H      305.623    -259.108    -892.570
  H      301.480    -264.047    -892.390
  H      301.492    -260.893    -894.280
  H      303.375    -263.161    -895.170
  H      302.209    -263.468    -897.140
  H      299.731    -262.178    -896.200
  H      299.127    -264.522    -895.430
  H      306.673    -262.215    -889.480
  H      305.414    -263.450    -889.540
  H      299.508    -264.373    -897.170
  P      301.174    -261.715    -898.900
  C      299.097    -260.286    -898.230
  O      299.581    -261.457    -898.880
  O      301.281    -263.301    -899.060
  O      301.946    -260.988    -899.950
  H      301.385    -263.540    -900.000
  H      298.030    -260.255    -898.300
  H      299.511    -259.419    -898.702
  H      299.387    -260.304    -897.200

 6  7  8  9  10  11  12  13  14  15  25  28  32  33  34  35 0
 6-311+G(2d,p)
 ****
 36  39  40 0
 6-311+G(2d,p)
 ****
 1  2  3  4  5  16  17  18  19  20  21  22  23  24 0
 3-21G
 ****
 26  27  29  30  31  37  38  41  42  43  44  45  46  47  48 0
 3-21G
 ****


