%nproc=1
%NoSave
%Mem=1900MB
#P OB98/GEN NMR

erre ene a

0 1
  C      393.853     336.633     146.700
  O      393.275     337.393     145.659
  P      393.649     336.989     144.145
  C      391.206     337.525     143.407
  O      392.598     337.736     143.188
  C      390.404     338.734     142.900
  O      390.600     339.853     143.795
  C      390.812     339.233     141.522
  O      390.311     338.381     140.504
  C      390.201     340.634     141.542
  O      388.785     340.563     141.289
  C      390.451     341.068     143.006
  N      392.285     345.683     144.297
  C      391.020     345.197     144.212
  N      390.613     343.968     143.837
  C      391.663     343.191     143.543
  C      392.999     343.542     143.557
  C      393.305     344.861     143.955
  N      394.604     345.339     144.036
  N      393.792     342.495     143.159
  C      392.949     341.503     142.919
  N      391.655     341.877     143.143
  O      393.200     335.457     144.063
  O      395.084     337.180     143.793
  H      388.682     340.237     140.363
  H      393.800     334.952     143.477
  H      390.225     345.908     144.488
  H      393.233     340.504     142.587
  H      389.620     341.640     143.422
  H      390.641     341.306     140.803
  H      391.902     339.296     141.440
  H      389.340     338.460     142.915
  H      391.017     337.395     144.466
  H      394.709     346.337     144.186
  H      395.341     344.778     143.645
  H      390.900     336.605     142.891
  P      390.681     338.750     138.992
  C      390.479     336.285     138.277
  O      389.951     337.599     138.120
  O      392.220     338.322     138.909
  O      390.370     340.151     138.590
  H      392.374     337.432     139.273
  H      389.865     335.596     137.686
  H      390.440     335.983     139.326
  H      391.510     336.244     137.922
  H      393.519     337.010     147.644
  H      394.919     336.704     146.644
  H      393.558     335.609     146.600

 3  4  5  6  7  8  9  10  11  12  22  25  29  30  31  32 0
 6-311+G(2d,p)
 ****
 33  36  37 0
 6-311+G(2d,p)
 ****
 1  2  13  14  15  16  17  18  19  20  21  23  24  26 0
 3-21G
 ****
 27  28  34  35  38  39  40  41  42  43  44  45  46  47  48 0
 3-21G
 ****


