%nproc=1
%NoSave
%Mem=1900MB
#P OB98/GEN NMR

erre ene a

0 1
  C       87.123    -102.671     -51.091
  O       87.629    -101.846     -52.146
  P       89.036    -102.293     -52.778
  C       90.391    -100.322     -51.775
  O       90.205    -101.730     -51.830
  C       91.853     -99.959     -51.485
  O       92.255    -100.427     -50.163
  C       92.848    -100.558     -52.491
  O       93.912     -99.608     -52.647
  C       93.378    -101.773     -51.751
  O       94.610    -102.229     -52.308
  C       93.461    -101.205     -50.335
  N       96.074    -102.653     -46.263
  C       96.299    -101.608     -47.138
  N       97.348    -100.800     -46.859
  N       95.563    -101.374     -48.196
  C       94.526    -102.243     -48.323
  C       94.190    -103.305     -47.515
  C       95.033    -103.569     -46.369
  O       94.875    -104.477     -45.560
  N       93.046    -103.936     -47.960
  C       92.743    -103.284     -49.070
  N       93.573    -102.220     -49.306
  O       89.144    -101.392     -54.098
  O       89.119    -103.752     -53.093
  H       94.423    -102.554     -53.214
  H       88.901    -101.917     -54.884
  H       96.687    -102.796     -45.475
  H       91.921    -103.527     -49.728
  H       94.324    -100.539     -50.205
  H       92.654    -102.596     -51.801
  H       97.923    -100.889     -46.035
  H       92.415    -100.808     -53.465
  H       97.509     -99.999     -47.463
  H       91.941     -98.864     -51.489
  H       89.757     -99.891     -50.996
  H       90.055     -99.880     -52.720
  P       94.034     -98.843     -54.052
  C       95.795    -100.457     -55.054
  O       94.488     -99.925     -55.139
  O       95.341     -97.936     -53.859
  O       92.848     -98.004     -54.411
  H       95.206     -97.068     -54.287
  H       95.803    -101.449     -55.511
  H       96.131    -100.548     -54.014
  H       96.488     -99.812     -55.599
  H       86.187    -102.280     -50.750
  H       87.822    -102.682     -50.281
  H       86.982    -103.668     -51.454

 3  4  5  6  7  8  9  10  11  12  23  26  30  31 0
 6-311+G(2d,p)
 ****
 33  35  36  37  38 0
 6-311+G(2d,p)
 ****
 1  2  13  14  15  16  17  18  19  20  21  22  24  25 0
 3-21G
 ****
 27  28  29  32  34  39  40  41  42  43  44  45  46  47  48  49 0
 3-21G
 ****


