%nproc=1
%NoSave
%Mem=1900MB
#P OB98/GEN NMR

erre ene a

0 1
  C      -37.840    -247.850     239.662
  O      -37.188    -247.692     238.409
  P      -35.626    -248.039     238.317
  C      -35.590    -250.042     236.671
  O      -35.514    -249.614     238.024
  C      -34.860    -251.370     236.470
  O      -33.475    -251.216     236.881
  C      -35.441    -252.542     237.269
  O      -35.251    -253.727     236.487
  C      -34.542    -252.603     238.489
  O      -34.584    -253.878     239.128
  C      -33.200    -252.241     237.859
  N      -29.804    -253.605     241.427
  C      -30.579    -254.337     240.601
  N      -31.459    -253.903     239.674
  C      -31.499    -252.558     239.652
  C      -30.794    -251.683     240.461
  C      -29.905    -252.256     241.385
  N      -29.107    -251.513     242.223
  N      -31.123    -250.377     240.161
  C      -32.008    -250.462     239.191
  N      -32.248    -251.759     238.835
  O      -35.146    -247.906     239.838
  O      -34.830    -247.158     237.416
  H      -34.460    -254.564     238.446
  H      -34.557    -247.133     239.935
  H      -30.474    -255.415     240.688
  H      -32.503    -249.624     238.719
  H      -32.746    -253.094     237.335
  H      -34.856    -251.849     239.220
  H      -36.498    -252.425     237.530
  H      -34.855    -251.602     235.398
  H      -35.119    -249.286     236.037
  H      -28.399    -251.991     242.757
  H      -29.034    -250.513     242.070
  H      -36.639    -250.138     236.376
  P      -36.455    -254.783     236.463
  C      -36.537    -255.057     233.885
  O      -37.194    -254.607     235.055
  O      -37.496    -254.180     237.518
  O      -36.053    -256.175     236.821
  H      -38.028    -254.897     237.909
  H      -37.285    -255.419     233.177
  H      -35.828    -255.863     234.098
  H      -35.996    -254.217     233.435
  H      -38.871    -247.581     239.564
  H      -37.374    -247.218     240.389
  H      -37.766    -248.870     239.977

 3  4  5  6  7  8  9  10  11  12  22  25  29  30  31  32 0
 6-311+G(2d,p)
 ****
 33  36  37 0
 6-311+G(2d,p)
 ****
 1  2  13  14  15  16  17  18  19  20  21  23  24  26 0
 3-21G
 ****
 27  28  34  35  38  39  40  41  42  43  44  45  46  47  48 0
 3-21G
 ****


