%nproc=1
%NoSave
%Mem=1900MB
#P OB98/GEN NMR

erre ene a

0 1
  C     -369.685    -310.848      -8.982
  O     -368.646    -309.978      -9.379
  H     -370.530    -310.713      -9.660
  H     -370.008    -310.615      -7.967
  H     -369.351    -311.890      -9.038
  P     -367.302    -309.930      -8.506
  C     -366.553    -308.801      -6.308
  O     -367.562    -308.894      -7.307
  C     -367.038    -307.928      -5.144
  O     -367.162    -306.569      -5.631
  C     -368.411    -308.371      -4.609
  O     -368.413    -308.582      -3.196
  C     -369.364    -307.325      -5.179
  O     -370.541    -307.137      -4.427
  C     -368.475    -306.082      -5.310
  N     -368.941    -305.133      -6.320
  C     -370.249    -304.667      -6.210
  O     -371.037    -304.982      -5.323
  N     -370.647    -303.782      -7.184
  C     -369.891    -303.349      -8.233
  O     -370.302    -302.554      -9.071
  C     -368.528    -303.899      -8.311
  C     -368.122    -304.752      -7.371
  O     -366.043    -309.691      -9.272
  O     -367.273    -311.346      -7.757
  H     -371.028    -306.390      -4.834
  H     -366.605    -311.925      -8.178
  H     -371.583    -303.426      -7.106
  H     -367.906    -303.583      -9.142
  H     -367.123    -305.178      -7.397
  H     -368.424    -305.549      -4.357
  H     -369.671    -307.653      -6.184
  H     -368.682    -309.355      -5.006
  H     -366.276    -307.930      -4.358
  H     -365.664    -308.356      -6.770
  H     -366.304    -309.804      -5.942
  P     -368.529    -310.004      -2.480
  C     -370.411    -311.349      -1.224
  O     -370.034    -310.200      -1.975
  O     -367.444    -310.333      -1.507
  O     -368.419    -311.054      -3.704
  H     -367.984    -311.851      -3.338
  H     -371.452    -311.292      -0.984
  H     -369.838    -311.389      -0.321
  H     -370.226    -312.230      -1.803

 6  7  8  9  10  11  12  13  14  15  16  26  31  32  33  34  35 0
 6-311+G(2d,p)
 ****
 36  37 0
 6-311+G(2d,p)
 ****
 1  2  3  4  5  17  18  19  20  21  22  23  24  25 0
 3-21G
 ****
 27  28  29  30  38  39  40  41  42  43  44  45 0
 3-21G
 ****


