%nproc=1
%NoSave
%Mem=1900MB
#P OB98/GEN NMR

erre ene a

0 1
  C      870.412     983.395     247.808
  O      871.141     984.337     247.049
  H      869.390     983.762     247.935
  H      870.869     983.280     248.793
  H      870.381     982.426     247.300
  P      872.600     983.900     246.535
  C      871.768     983.478     244.109
  O      872.369     982.935     245.277
  C      872.548     983.045     242.869
  O      873.899     983.581     242.965
  C      872.671     981.524     242.699
  O      872.624     981.221     241.307
  C      874.069     981.231     243.222
  O      874.628     980.026     242.724
  C      874.823     982.481     242.762
  N      876.061     982.697     243.498
  C      877.202     982.057     243.019
  O      877.259     981.408     241.977
  N      878.323     982.195     243.794
  C      878.408     982.870     244.979
  O      879.438     982.934     245.646
  C      877.167     983.511     245.438
  C      876.068     983.392     244.690
  O      873.096     982.901     247.690
  O      873.554     985.022     246.294
  H      873.566     983.396     248.382
  H      874.479     980.014     241.756
  H      879.158     981.743     243.460
  H      877.196     984.041     246.382
  H      875.125     983.832     245.009
  H      875.027     982.431     241.688
  H      874.049     981.177     244.320
  H      871.900     980.952     243.231
  H      872.089     983.503     241.985
  H      871.776     984.567     244.173
  H      870.729     983.125     244.045
  P      871.717     979.969     240.861
  C      869.825     981.782     240.614
  O      870.197     980.475     241.025
  O      871.934     978.969     242.079
  O      872.081     979.430     239.515
  H      872.032     979.427     242.934
  H      868.782     981.932     240.802
  H      870.019     981.896     239.568
  H      870.393     982.504     241.163

 6  7  8  9  10  11  12  13  14  15  16  27  31  32  33  34  35 0
 6-311+G(2d,p)
 ****
 36  37 0
 6-311+G(2d,p)
 ****
 1  2  3  4  5  17  18  19  20  21  22  23  24  25 0
 3-21G
 ****
 26  28  29  30  38  39  40  41  42  43  44  45 0
 3-21G
 ****


