%nproc=1
%NoSave
%Mem=1900MB
#P OB98/GEN NMR

erre ene a

0 1
  C      128.984    -521.947    -238.091
  O      129.199    -520.837    -237.211
  P      128.608    -520.993    -235.721
  C      126.071    -520.629    -236.102
  O      127.110    -521.560    -235.854
  C      124.733    -521.341    -236.368
  O      124.396    -522.218    -235.257
  C      123.555    -520.381    -236.580
  O      122.683    -520.991    -237.553
  C      122.894    -520.384    -235.210
  O      121.582    -519.859    -235.205
  C      123.050    -521.851    -234.842
  N      119.884    -523.955    -231.438
  C      119.798    -523.814    -232.776
  N      120.684    -523.231    -233.623
  C      121.755    -522.777    -232.933
  C      121.976    -522.846    -231.569
  C      120.985    -523.467    -230.796
  N      121.049    -523.606    -229.430
  N      123.189    -522.245    -231.236
  C      123.630    -521.754    -232.386
  N      122.848    -522.124    -233.439
  O      128.417    -519.490    -235.233
  O      129.498    -521.781    -234.819
  H      121.547    -519.037    -235.724
  H      129.149    -519.216    -234.666
  H      118.906    -524.219    -233.235
  H      124.513    -521.148    -232.505
  H      122.347    -522.493    -235.407
  H      123.490    -519.751    -234.517
  H      123.848    -519.381    -236.929
  H      124.862    -521.969    -237.258
  H      126.330    -520.006    -236.970
  H      120.266    -524.051    -228.964
  H      121.822    -523.240    -228.920
  H      125.987    -519.945    -235.249
  P      122.352    -520.179    -238.896
  C      120.055    -519.249    -238.246
  O      121.431    -518.953    -238.421
  O      121.263    -521.151    -239.558
  O      123.511    -519.871    -239.777
  H      120.570    -521.396    -238.919
  H      119.572    -518.344    -237.839
  H      119.934    -520.068    -237.529
  H      119.600    -519.495    -239.204
  H      129.416    -521.734    -239.046
  H      127.933    -522.114    -238.204
  H      129.442    -522.822    -237.680

 3  4  5  6  7  8  9  10  11  12  22  25  29  30  31  32 0
 6-311+G(2d,p)
 ****
 33  36  37 0
 6-311+G(2d,p)
 ****
 1  2  13  14  15  16  17  18  19  20  21  23  24  26 0
 3-21G
 ****
 27  28  34  35  38  39  40  41  42  43  44  45  46  47  48 0
 3-21G
 ****


