%nproc=1
%NoSave
%Mem=1900MB
#P OB98/GEN NMR

erre ene a

0 1
  C      449.960     132.986    -283.779
  O      449.292     131.737    -283.959
  P      447.712     131.751    -284.233
  C      447.663     130.273    -286.373
  O      447.322     130.398    -284.994
  C      447.551     128.815    -286.821
  O      448.698     128.032    -286.404
  C      446.331     128.092    -286.249
  O      445.158     128.362    -287.012
  C      446.740     126.641    -286.426
  O      446.518     126.231    -287.790
  C      448.238     126.688    -286.117
  N      448.859     122.896    -282.816
  C      448.558     122.865    -284.166
  N      448.420     121.638    -284.720
  N      448.420     123.929    -284.913
  C      448.612     125.086    -284.221
  C      448.912     125.248    -282.884
  C      449.041     124.057    -282.077
  O      449.294     124.030    -280.869
  N      449.024     126.573    -282.555
  C      448.807     127.216    -283.695
  N      448.543     126.360    -284.733
  O      447.563     132.864    -285.370
  O      446.885     132.078    -283.025
  H      445.575     126.395    -287.983
  H      446.679     133.280    -285.322
  H      448.948     122.047    -282.291
  H      448.855     128.294    -283.816
  H      448.822     126.000    -286.749
  H      446.155     125.967    -285.799
  H      448.559     120.775    -284.222
  H      446.188     128.319    -285.186
  H      448.232     121.591    -285.718
  H      447.497     128.795    -287.919
  H      448.679     130.634    -286.545
  H      447.012     130.928    -286.961
  P      443.832     128.807    -286.223
  C      442.729     129.853    -288.326
  O      442.662     128.866    -287.323
  O      444.129     130.348    -285.884
  O      443.540     128.019    -284.994
  H      443.688     130.595    -285.049
  H      441.955     129.642    -289.079
  H      443.708     129.838    -288.833
  H      442.547     130.846    -287.903
  H      451.002     132.812    -283.607
  H      449.540     133.497    -282.938
  H      449.839     133.585    -284.657

 3  4  5  6  7  8  9  10  11  12  23  26  30  31 0
 6-311+G(2d,p)
 ****
 33  35  36  37  38 0
 6-311+G(2d,p)
 ****
 1  2  13  14  15  16  17  18  19  20  21  22  24  25 0
 3-21G
 ****
 27  28  29  32  34  39  40  41  42  43  44  45  46  47  48  49 0
 3-21G
 ****


