%nproc=1
%NoSave
%Mem=1900MB
#P OB98/GEN NMR

erre ene a

0 1
  C      293.830     643.493     234.648
  O      293.220     643.014     233.465
  H      294.127     642.649     235.277
  H      294.728     644.058     234.378
  H      293.149     644.146     235.198
  P      291.737     642.412     233.595
  C      292.475     639.966     234.061
  O      291.846     641.130     234.568
  C      292.508     638.873     235.134
  O      293.268     639.360     236.266
  C      291.122     638.441     235.635
  O      291.130     637.018     235.844
  C      291.008     639.138     236.981
  O      290.113     638.470     237.871
  C      292.455     639.124     237.442
  N      293.028     639.872     242.441
  C      293.090     638.756     241.683
  N      292.977     638.652     240.348
  C      292.858     639.873     239.778
  C      292.791     641.100     240.421
  C      292.861     641.074     241.823
  N      292.741     642.189     242.604
  N      292.608     642.111     239.491
  C      292.552     641.510     238.325
  N      292.693     640.146     238.449
  O      291.504     641.761     232.150
  O      290.672     643.396     233.946
  H      290.038     639.007     238.691
  H      291.142     642.431     231.543
  H      293.226     637.821     242.224
  H      292.369     641.984     237.381
  H      292.760     638.162     237.881
  H      290.655     640.166     236.833
  H      290.300     638.710     234.961
  H      293.058     638.010     234.724
  H      293.510     640.213     233.770
  H      292.692     642.068     243.610
  H      292.504     643.072     242.168
  H      291.938     639.617     233.173
  P      290.802     636.084     234.584
  C      288.303     635.894     235.290
  O      289.232     636.190     234.264
  O      290.957     634.606     235.179
  O      291.706     636.307     233.412
  H      291.289     633.997     234.488
  H      287.308     636.012     234.915
  H      288.456     636.561     236.113
  H      288.443     634.885     235.618

 6  7  8  9  10  11  12  13  14  15  25  28  32  33  34  35 0
 6-311+G(2d,p)
 ****
 36  39  40 0
 6-311+G(2d,p)
 ****
 1  2  3  4  5  16  17  18  19  20  21  22  23  24 0
 3-21G
 ****
 26  27  29  30  31  37  38  41  42  43  44  45  46  47 0
 3-21G
 ****
 48 0
 3-21G
 ****


