%nproc=1
%NoSave
%Mem=1900MB
#P OB98/GEN NMR

erre ene a

0 1
  C     -421.780     323.599      47.114
  O     -420.403     323.761      47.374
  H     -422.111     322.657      47.554
  H     -421.951     323.562      46.034
  H     -422.364     324.414      47.550
  P     -419.732     325.192      47.126
  C     -420.773     327.511      47.581
  O     -420.459     326.233      48.110
  C     -420.951     328.538      48.707
  O     -422.033     328.106      49.571
  C     -419.695     328.633      49.582
  O     -419.555     329.918      50.179
  C     -419.966     327.609      50.671
  O     -419.225     327.850      51.866
  C     -421.478     327.744      50.846
  N     -423.207     325.176      54.898
  C     -422.434     326.321      54.853
  N     -422.081     326.854      56.047
  N     -422.031     326.880      53.743
  C     -422.397     326.200      52.630
  C     -423.140     325.044      52.547
  C     -423.612     324.455      53.780
  O     -424.277     323.428      53.877
  N     -423.303     324.647      51.242
  C     -422.657     325.557      50.540
  N     -422.111     326.535      51.334
  O     -420.292     325.629      45.690
  O     -418.234     325.220      47.164
  H     -419.440     327.138      52.494
  H     -419.706     326.291      45.283
  H     -423.516     324.803      55.776
  H     -422.569     325.561      49.459
  H     -421.715     328.548      51.555
  H     -419.667     326.626      50.298
  H     -422.206     326.347      56.911
  H     -418.786     328.395      49.038
  H     -421.277     327.486      56.040
  H     -421.244     329.506      48.289
  H     -421.698     327.403      47.009
  H     -419.998     327.834      46.881
  P     -418.269     330.800      49.811
  C     -418.964     331.371      47.320
  O     -418.621     331.803      48.618
  O     -417.267     329.750      49.143
  O     -417.647     331.503      50.978
  H     -416.465     329.650      49.690
  H     -419.156     332.222      46.700
  H     -419.841     330.760      47.368
  H     -418.156     330.804      46.908

 6  7  8  9  10  11  12  13  14  15  26  29  33  34 0
 6-311+G(2d,p)
 ****
 36  38  39  40  41 0
 6-311+G(2d,p)
 ****
 1  2  3  4  5  16  17  18  19  20  21  22  23  24  25 0
 3-21G
 ****
 27  28  30  31  32  35  37  42  43  44  45  46  47 0
 3-21G
 ****
 48  49 0
 3-21G
 ****


