%nproc=1
%NoSave
%Mem=1900MB
#P OB98/GEN NMR

erre ene a

0 1
  C      -97.531      82.304     -42.863
  O      -97.902      81.134     -42.141
  P      -96.736      80.240     -41.497
  C      -98.272      79.308     -39.629
  O      -97.450      79.010     -40.745
  C      -98.151      78.232     -38.546
  O      -98.966      77.086     -38.931
  C      -96.725      77.712     -38.324
  O      -96.610      77.376     -36.931
  C      -96.688      76.436     -39.147
  O      -95.656      75.549     -38.724
  C      -98.106      75.923     -38.920
  N      -96.838      71.682     -41.490
  C      -96.211      72.352     -40.498
  N      -96.614      73.477     -39.859
  C      -97.792      73.900     -40.346
  C      -98.528      73.343     -41.380
  C      -98.009      72.172     -41.964
  N      -98.648      71.478     -42.970
  N      -99.667      74.085     -41.617
  C      -99.622      75.071     -40.742
  N      -98.522      74.990     -39.941
  O      -96.209      81.157     -40.295
  O      -95.628      79.872     -42.427
  H      -95.707      74.735     -39.258
  H      -95.304      81.477     -40.488
  H      -95.262      71.933     -40.164
  H     -100.359      75.864     -40.661
  H      -98.219      75.429     -37.943
  H      -96.514      76.683     -40.196
  H      -95.934      78.422     -38.607
  H      -98.566      78.629     -37.612
  H      -99.310      79.355     -39.954
  H      -98.282      70.584     -43.234
  H      -99.605      71.730     -43.195
  H      -97.991      80.288     -39.219
  P      -95.465      78.140     -36.092
  C      -96.935      78.715     -34.027
  O      -95.844      77.964     -34.545
  O      -95.763      79.686     -36.392
  O      -94.074      77.755     -36.470
  H      -94.934      80.199     -36.317
  H      -97.429      78.122     -33.252
  H      -97.668      78.960     -34.803
  H      -96.558      79.640     -33.587
  H      -98.411      82.791     -43.229
  H      -96.905      82.031     -43.687
  H      -96.999      82.969     -42.215

 3  4  5  6  7  8  9  10  11  12  22  25  29  30  31  32 0
 6-311+G(2d,p)
 ****
 33  36  37 0
 6-311+G(2d,p)
 ****
 1  2  13  14  15  16  17  18  19  20  21  23  24  26 0
 3-21G
 ****
 27  28  34  35  38  39  40  41  42  43  44  45  46  47  48 0
 3-21G
 ****


