%nproc=1
%NoSave
%Mem=1900MB
#P OB98/GEN NMR

erre ene a

0 1
  C      106.943    -113.441       3.864
  O      105.884    -113.719       2.967
  H      107.175    -112.374       3.814
  H      107.832    -114.009       3.575
  H      106.655    -113.694       4.888
  P      105.238    -115.182       3.060
  C      106.611    -115.823       0.919
  O      106.190    -116.178       2.229
  C      106.168    -116.888      -0.080
  O      106.530    -116.512      -1.425
  C      106.843    -118.238       0.107
  O      106.367    -118.930       1.243
  C      106.488    -118.915      -1.208
  O      105.188    -119.517      -1.162
  C      106.508    -117.731      -2.204
  N      107.627    -117.820      -3.125
  C      107.303    -118.237      -4.422
  O      106.133    -118.481      -4.719
  N      108.316    -118.403      -5.331
  C      109.546    -118.199      -4.971
  N      110.506    -118.412      -5.912
  C      109.930    -117.760      -3.614
  C      108.929    -117.591      -2.748
  O      103.946    -115.049       2.126
  O      104.945    -115.650       4.445
  H      105.090    -120.023      -1.996
  H      104.129    -114.653       1.260
  H      110.967    -117.590      -3.367
  H      109.121    -117.271      -1.730
  H      105.581    -117.708      -2.794
  H      107.195    -119.710      -1.457
  H      107.934    -118.114       0.144
  H      105.076    -116.977      -0.024
  H      110.202    -118.768      -6.811
  H      107.698    -115.697       0.885
  H      111.496    -118.362      -5.723
  H      106.157    -114.858       0.675
  P      107.375    -119.615       2.281
  C      107.122    -121.918       1.154
  O      108.023    -120.882       1.531
  O      106.797    -119.927       3.619
  O      108.605    -118.590       2.323
  H      109.045    -118.441       1.467
  H      107.663    -122.702       0.667
  H      106.385    -121.524       0.485
  H      106.640    -122.307       2.027

 6  7  8  9  10  11  12  13  14  15  16  26  30  31  32  33  35 0
 6-311+G(2d,p)
 ****
 37  38 0
 6-311+G(2d,p)
 ****
 1  2  3  4  5  17  18  19  20  21  22  23  24  25 0
 3-21G
 ****
 27  28  29  34  36  39  40  41  42  43  44  45  46 0
 3-21G
 ****


