%nproc=1
%NoSave
%Mem=1900MB
#P OB98/GEN NMR

erre ene a

0 1
  C      653.252     -73.995      -3.030
  O      652.600     -72.787      -2.702
  H      653.730     -73.879      -4.004
  H      652.535     -74.820      -3.086
  H      654.024     -74.223      -2.290
  P      651.721     -72.732      -1.362
  C      653.434     -72.058       0.456
  O      652.701     -73.112      -0.150
  C      653.584     -72.297       1.966
  O      654.464     -73.436       2.174
  C      654.204     -71.104       2.724
  O      653.670     -71.126       4.055
  C      655.673     -71.478       2.730
  O      656.397     -70.706       3.646
  C      655.577     -72.986       2.983
  N      656.807     -73.695       2.665
  C      657.489     -74.257       3.751
  O      657.050     -74.134       4.896
  N      658.666     -74.926       3.514
  C      659.154     -74.958       2.314
  N      660.331     -75.623       2.145
  C      658.491     -74.323       1.151
  C      657.330     -73.719       1.399
  O      650.438     -73.496      -1.397
  O      651.458     -71.167      -1.136
  H      656.322     -69.748       3.442
  H      650.535     -70.951      -1.374
  H      658.950     -74.369       0.172
  H      656.774     -73.223       0.614
  H      655.316     -73.187       4.036
  H      656.120     -71.297       1.741
  H      653.990     -70.141       2.245
  H      652.611     -72.566       2.379
  H      660.751     -76.035       2.969
  H      652.882     -71.127       0.280
  H      660.815     -75.695       1.266
  H      654.426     -71.972      -0.003
  P      652.732     -69.958       4.637
  C      650.528     -71.287       4.841
  O      651.220     -70.224       4.187
  O      653.228     -68.581       4.343
  O      652.700     -70.211       6.225
  H      652.595     -69.355       6.682
  H      649.534     -71.359       4.451
  H      650.485     -71.091       5.892
  H      651.046     -72.208       4.670

 6  7  8  9  10  11  12  13  14  15  16  26  30  31  32  33  35 0
 6-311+G(2d,p)
 ****
 37  38 0
 6-311+G(2d,p)
 ****
 1  2  3  4  5  17  18  19  20  21  22  23  24  25 0
 3-21G
 ****
 27  28  29  34  36  39  40  41  42  43  44  45  46 0
 3-21G
 ****


