%nproc=1
%NoSave
%Mem=1900MB
#P OB98/GEN NMR

erre ene a

0 1
  C     -295.013     148.308     632.781
  O     -294.932     147.293     631.800
  P     -296.145     146.265     631.587
  C     -296.844     144.705     629.657
  O     -296.080     145.849     630.037
  C     -296.666     144.407     628.165
  O     -297.374     145.379     627.367
  C     -295.223     144.454     627.691
  O     -294.530     143.276     628.073
  C     -295.412     144.619     626.190
  O     -295.661     143.355     625.555
  C     -296.662     145.521     626.119
  N     -296.332     146.909     625.837
  C     -296.519     147.324     624.514
  O     -296.908     146.527     623.655
  N     -296.213     148.623     624.180
  C     -295.736     149.424     625.086
  N     -295.445     150.691     624.689
  C     -295.496     149.016     626.483
  C     -295.814     147.758     626.784
  O     -297.475     146.740     632.069
  O     -295.633     144.945     632.332
  H     -295.764     143.545     624.599
  H     -295.680     145.044     633.316
  H     -295.093     149.716     627.199
  H     -295.667     147.372     627.788
  H     -297.346     145.168     625.334
  H     -294.528     145.051     625.707
  H     -294.721     145.343     628.095
  H     -297.101     143.419     627.964
  H     -295.593     150.924     623.716
  H     -297.897     144.912     629.860
  H     -295.039     151.386     625.303
  H     -296.535     143.846     630.263
  P     -292.967     143.338     628.400
  C     -291.298     141.971     629.790
  O     -292.664     142.248     629.539
  O     -292.420     144.705     628.667
  O     -292.287     142.699     627.099
  H     -291.517     143.245     626.844
  H     -291.216     141.490     630.773
  H     -290.706     142.885     629.789
  H     -290.921     141.283     629.030
  H     -294.113     148.887     632.770
  H     -295.139     147.862     633.746
  H     -295.848     148.943     632.569

 3  4  5  6  7  8  9  10  11  12  13  23  27  28  29  30  32 0
 6-311+G(2d,p)
 ****
 34  35 0
 6-311+G(2d,p)
 ****
 1  2  14  15  16  17  18  19  20  21  22  24  25  26 0
 3-21G
 ****
 31  33  36  37  38  39  40  41  42  43  44  45  46 0
 3-21G
 ****


