%nproc=1
%NoSave
%Mem=1900MB
#P OB98/GEN NMR

erre ene a

0 1
  C       59.707     186.227     122.198
  O       58.713     185.617     123.009
  P       57.637     184.673     122.276
  C       59.320     182.729     121.934
  O       58.492     183.709     121.320
  C       59.074     181.358     121.317
  O       57.754     180.898     121.661
  C       59.131     181.329     119.797
  O       60.466     181.270     119.317
  C       58.385     180.038     119.499
  O       59.275     178.917     119.652
  C       57.307     180.020     120.597
  N       52.962     178.640     118.397
  C       54.072     177.883     118.716
  N       54.001     176.565     118.432
  N       55.152     178.374     119.262
  C       55.064     179.699     119.526
  C       54.021     180.556     119.255
  C       52.850     180.010     118.604
  O       51.864     180.643     118.238
  N       54.297     181.828     119.685
  C       55.485     181.735     120.246
  N       56.005     180.469     120.148
  O       56.923     185.671     121.249
  O       56.658     184.009     123.180
  H       59.915     178.958     118.916
  H       56.024     185.346     121.043
  H       52.150     178.209     117.993
  H       56.001     182.553     120.731
  H       57.200     179.019     121.033
  H       57.991     179.996     118.479
  H       53.153     176.109     118.135
  H       58.587     182.176     119.365
  H       54.790     175.987     118.692
  H       59.801     180.655     121.744
  H       59.092     182.682     123.004
  H       60.367     183.024     121.812
  P       60.723     181.837     117.836
  C       60.512     184.294     118.651
  O       60.015     183.273     117.807
  O       59.779     180.921     116.925
  O       62.148     181.791     117.399
  H       60.129     180.879     116.014
  H       61.601     184.244     118.742
  H       60.059     184.199     119.642
  H       60.241     185.264     118.229
  H       60.351     186.823     122.811
  H       59.237     186.849     121.465
  H       60.282     185.469     121.708

 3  4  5  6  7  8  9  10  11  12  23  26  30  31  33  0
 6-311+G(2d,p)
 ****
 35  36  37  38 0
 6-311+G(2d,p)
 ****
 1  2  13  14  15  16  17  18  19  20  21  22  24  25  27  28  29 0
 3-21G
 ****
 32  34  39  40  41  42  43  44  45  46  47  48  49 0
 3-21G
 ****


