%nproc=1
%NoSave
%Mem=1900MB
#P OB98/GEN NMR

erre ene a

0 1
  C     -318.835     138.982    -107.117
  O     -318.995     137.572    -106.940
  P     -318.162     136.634    -107.944
  C     -320.287     135.724    -109.114
  O     -319.110     135.414    -108.383
  C     -321.446     134.799    -108.727
  O     -321.414     133.567    -109.505
  C     -321.446     134.392    -107.249
  O     -322.819     134.281    -106.844
  C     -320.824     133.010    -107.279
  O     -321.116     132.278    -106.089
  C     -321.457     132.471    -108.562
  N     -321.429     127.421    -108.632
  C     -322.202     128.296    -107.898
  N     -323.146     127.747    -107.098
  N     -322.069     129.597    -107.940
  C     -321.115     130.007    -108.814
  C     -320.295     129.240    -109.608
  C     -320.433     127.801    -109.527
  O     -319.776     126.983    -110.160
  N     -319.473     130.024    -110.387
  C     -319.758     131.257    -110.001
  N     -320.780     131.303    -109.095
  O     -317.075     135.952    -106.986
  O     -317.521     137.381    -109.067
  H     -322.085     132.124    -106.069
  H     -316.215     136.402    -107.078
  H     -321.563     126.428    -108.550
  H     -319.275     132.147    -110.364
  H     -322.506     132.181    -108.416
  H     -319.735     133.086    -107.382
  H     -323.334     126.755    -107.055
  H     -320.912     135.084    -106.589
  H     -323.753     128.367    -106.579
  H     -322.387     135.312    -108.968
  H     -320.097     135.628    -110.186
  H     -320.546     136.775    -108.945
  P     -323.386     135.371    -105.817
  C     -324.696     133.634    -104.416
  O     -324.754     134.796    -105.217
  O     -323.870     136.558    -106.781
  O     -322.391     135.865    -104.818
  H     -323.661     137.418    -106.368
  H     -325.550     133.635    -103.731
  H     -323.776     133.589    -103.829
  H     -324.759     132.750    -105.055
  H     -319.433     139.502    -106.398
  H     -319.146     139.255    -108.104
  H     -317.806     139.244    -106.982

 3  4  5  6  7  8  9  10  11  12  23  26  30  31 0
 6-311+G(2d,p)
 ****
 33  35  36  37  38 0
 6-311+G(2d,p)
 ****
 1  2  13  14  15  16  17  18  19  20  21  22  24  25 0
 3-21G
 ****
 27  28  29  32  34  39  40  41  42  43  44  45  46  47  48  49 0
 3-21G
 ****


