%nproc=1
%NoSave
%Mem=1900MB
#P OB98/GEN NMR

erre ene a

0 1
  C      193.255     629.798    -451.984
  O      194.030     629.791    -450.781
  P      195.013     628.554    -450.478
  C      197.057     629.006    -452.003
  O      195.876     628.242    -451.790
  C      198.287     628.207    -451.533
  O      198.590     627.121    -452.452
  C      199.558     629.051    -451.497
  O      199.624     630.046    -450.503
  C      200.645     627.986    -451.505
  O      200.881     627.483    -450.189
  C      200.015     626.900    -452.404
  N      200.600     626.883    -453.749
  C      201.670     626.030    -453.950
  O      202.157     625.344    -453.051
  N      202.196     626.004    -455.214
  C      201.783     626.772    -456.274
  O      202.301     626.733    -457.379
  C      200.658     627.681    -455.995
  C      200.127     627.705    -454.771
  O      194.383     627.374    -449.817
  O      196.109     629.214    -449.502
  H      200.812     628.232    -449.568
  H      196.315     628.566    -448.797
  H      202.976     625.389    -455.379
  H      200.308     628.310    -456.801
  H      199.292     628.365    -454.543
  H      200.167     625.905    -451.969
  H      201.597     628.395    -451.872
  H      199.632     629.589    -452.455
  H      198.073     627.769    -450.559
  H      196.989     629.945    -451.459
  H      197.130     629.259    -453.062
  P      200.870     631.052    -450.340
  C      199.552     633.158    -451.086
  O      200.642     632.298    -451.323
  O      202.242     630.451    -450.314
  O      200.569     631.706    -448.911
  H      201.425     631.904    -448.474
  H      199.533     633.933    -451.853
  H      199.633     633.630    -450.107
  H      198.605     632.600    -451.139
  H      192.663     630.688    -452.022
  H      192.613     628.942    -452.000
  H      193.909     629.769    -452.830

 3  4  5  6  7  8  9  10  11  12  13  23  28  29  30  31  32 0
 6-311+G(2d,p)
 ****
 33  34 0
 6-311+G(2d,p)
 ****
 1  2  14  15  16  17  18  19  20  21  22  24  25  26  27 0
 3-21G
 ****
 35  36  37  38  39  40  41  42  43  44  45 0
 3-21G
 ****


