%nproc=1
%NoSave
%Mem=1900MB
#P OB98/GEN NMR

erre ene a

0 1
  C      148.259     176.021    -141.390
  O      149.549     175.579    -141.018
  H      147.962     175.508    -142.307
  H      148.273     177.098    -141.579
  H      147.529     175.792    -140.607
  P      150.091     176.025    -139.577
  C      149.570     173.663    -138.613
  O      150.545     174.677    -138.822
  C      150.259     172.308    -138.438
  O      150.943     171.974    -139.682
  C      151.307     172.279    -137.317
  O      151.266     170.988    -136.696
  C      152.618     172.426    -138.067
  O      153.745     171.923    -137.364
  C      152.307     171.645    -139.350
  N      153.214     171.983    -140.446
  C      154.363     171.211    -140.588
  O      154.629     170.219    -139.912
  N      155.234     171.625    -141.563
  C      155.085     172.715    -142.370
  O      155.914     173.044    -143.212
  C      153.854     173.496    -142.168
  C      152.991     173.101    -141.231
  O      148.756     176.448    -138.804
  O      151.120     177.105    -139.582
  H      148.567     177.396    -138.944
  H      153.597     170.960    -137.226
  H      156.074     171.075    -141.678
  H      153.707     174.373    -142.784
  H      152.084     173.666    -141.038
  H      152.346     170.568    -139.158
  H      152.803     173.485    -138.291
  H      151.175     173.060    -136.562
  H      149.491     171.541    -138.280
  H      148.904     173.617    -139.478
  H      148.980     173.908    -137.724
  P      151.154     170.945    -135.096
  C      149.590     168.993    -134.310
  O      150.885     169.407    -134.724
  O      149.744     171.664    -134.865
  O      152.312     171.587    -134.412
  H      149.098     171.465    -135.563
  H      149.600     167.943    -134.106
  H      148.884     169.199    -135.088
  H      149.311     169.526    -133.425

 6  7  8  9  10  11  12  13  14  15  16  27  31  32  33  34  35 0
 6-311+G(2d,p)
 ****
 36  37 0
 6-311+G(2d,p)
 ****
 1  2  3  4  5  17  18  19  20  21  22  23  24  25 0
 3-21G
 ****
 26  28  29  30  38  39  40  41  42  43  44  45 0
 3-21G
 ****


