%nproc=1
%NoSave
%Mem=1900MB
#P OB98/GEN NMR

erre ene a

0 1
  C     -563.791     145.278     -55.496
  O     -564.101     144.920     -56.830
  H     -562.716     145.183     -55.346
  H     -564.310     144.608     -54.803
  H     -564.088     146.315     -55.305
  P     -565.645     145.014     -57.256
  C     -565.440     147.260     -58.563
  O     -565.676     145.864     -58.616
  C     -564.599     147.710     -59.764
  O     -563.225     147.275     -59.560
  C     -565.060     147.112     -61.106
  O     -564.714     148.038     -62.148
  C     -564.180     145.876     -61.206
  O     -564.205     145.345     -62.514
  C     -562.866     146.463     -60.703
  N     -558.698     143.892     -62.182
  C     -559.399     144.885     -62.768
  N     -560.489     145.532     -62.313
  C     -560.839     145.065     -61.098
  C     -560.215     144.070     -60.370
  C     -559.093     143.464     -60.959
  N     -558.381     142.446     -60.368
  N     -560.866     143.868     -59.162
  C     -561.860     144.734     -59.168
  N     -561.887     145.473     -60.315
  O     -566.268     146.009     -56.169
  O     -566.373     143.715     -57.310
  H     -564.019     144.381     -62.505
  H     -566.669     145.497     -55.441
  H     -559.032     145.208     -63.745
  H     -562.589     144.858     -58.372
  H     -562.398     147.119     -61.446
  H     -564.537     145.087     -60.541
  H     -566.137     146.901     -61.142
  H     -564.586     148.808     -59.800
  H     -564.903     147.488     -57.628
  H     -566.397     147.798     -58.563
  H     -557.600     142.053     -60.862
  H     -558.675     142.104     -59.464
  P     -565.705     148.199     -63.405
  C     -566.170     150.735     -62.955
  O     -565.711     149.742     -63.858
  O     -567.148     148.048     -62.724
  O     -565.527     147.197     -64.500
  H     -567.780     147.696     -63.371
  H     -566.104     151.697     -63.419
  H     -565.564     150.723     -62.073
  H     -567.188     150.535     -62.692

 6  7  8  9  10  11  12  13  14  15  25  28  32  33  34  35 0
 6-311+G(2d,p)
 ****
 36  37  40 0
 6-311+G(2d,p)
 ****
 1  2  3  4  5  16  17  18  19  20  21  22  23  24 0
 3-21G
 ****
 26  27  29  30  31  38  39 41  42  43  44  45  46  47  48 0
 3-21G
 ****


