%nproc=1
%NoSave
%Mem=1900MB
#P OB98/GEN NMR

erre ene a

0 1
  C      132.634      82.048     193.524
  O      131.588      82.975     193.313
  H      132.473      81.182     192.876
  H      132.630      81.713     194.564
  H      133.602      82.496     193.279
  P      131.741      84.423     193.983
  C      131.319      85.406     196.352
  O      131.393      84.243     195.541
  C      129.861      85.689     196.725
  O      129.137      86.053     195.516
  C      129.135      84.494     197.354
  O      128.231      84.985     198.350
  C      128.335      83.928     196.193
  O      127.204      83.163     196.588
  C      127.967      85.213     195.446
  N      127.581      84.966     194.056
  C      127.318      86.077     193.258
  O      127.472      87.245     193.607
  N      126.859      85.800     191.995
  C      126.620      84.559     191.478
  O      126.186      84.378     190.345
  C      126.905      83.429     192.371
  C      127.362      83.681     193.601
  O      130.477      85.220     193.410
  O      133.032      85.123     193.710
  H      130.705      85.665     192.570
  H      126.891      82.676     195.800
  H      126.666      86.592     191.404
  H      126.717      82.431     191.999
  H      127.563      82.868     194.293
  H      127.155      85.736     195.964
  H      128.977      83.288     195.576
  H      129.802      83.744     197.798
  H      129.832      86.561     197.391
  H      131.717      86.263     195.796
  H      131.922      85.259     197.255
  P      128.406      84.427     199.846
  C      127.424      82.356     201.121
  O      127.432      83.157     199.946
  O      127.669      85.564     200.689
  O      129.830      84.186     200.214
  H      126.899      85.946     200.228
  H      126.717      81.561     201.006
  H      127.149      82.958     201.961
  H      128.399      81.946     201.280

 6  7  8  9  10  11  12  13  14  15  16  27  31  32  33  34  35 0
 6-311+G(2d,p)
 ****
 36  37 0
 6-311+G(2d,p)
 ****
 1  2  3  4  5  17  18  19  20  21  22  23  24  25 0
 3-21G
 ****
 26  28  29  30  38  39  40  41  42  43  44  45 0
 3-21G
 ****


