%nproc=1
%NoSave
%Mem=1900MB
#P OB98/GEN NMR

erre ene a

0 1
  C     -428.197    -101.456     432.205
  O     -429.147    -100.415     432.337
  P     -429.192     -99.212     431.279
  C     -427.826     -97.593     432.764
  O     -427.857     -98.357     431.548
  C     -426.443     -96.975     432.982
  O     -425.415     -97.996     432.893
  C     -426.059     -95.922     431.958
  O     -426.715     -94.700     432.227
  C     -424.542     -95.881     432.118
  O     -424.167     -95.055     433.228
  C     -424.214     -97.370     432.414
  N     -423.674     -98.057     431.244
  C     -422.436     -98.675     431.409
  O     -421.845     -98.609     432.489
  N     -421.868     -99.335     430.338
  C     -422.482     -99.343     429.194
  N     -421.870     -99.999     428.163
  C     -423.776     -98.674     428.961
  C     -424.311     -98.045     430.019
  O     -430.462     -98.430     431.252
  O     -428.873     -99.943     429.880
  H     -424.193     -94.129     432.898
  H     -429.641    -100.472     429.557
  H     -424.242     -98.691     427.984
  H     -425.250     -97.522     429.943
  H     -423.478     -97.444     433.224
  H     -424.034     -95.492     431.229
  H     -426.304     -96.281     430.942
  H     -426.419     -96.547     433.994
  H     -420.978    -100.415     428.357
  H     -428.067     -98.264     433.591
  H     -422.238    -100.034     427.227
  H     -428.597     -96.811     432.708
  P     -427.063     -93.690     431.030
  C     -424.954     -92.269     431.400
  O     -425.681     -93.076     430.482
  O     -428.129     -92.692     431.318
  O     -427.509     -94.666     429.832
  H     -428.310     -94.302     429.403
  H     -423.921     -92.189     431.058
  H     -424.969     -92.712     432.415
  H     -425.386     -91.269     431.442
  H     -428.325    -102.159     433.001
  H     -427.210    -101.045     432.247
  H     -428.338    -101.950     431.267

 3  4  5  6  7  8  9  10  11  12  13  23  27  28  29  30  32 0
 6-311+G(2d,p)
 ****
 34  35 0
 6-311+G(2d,p)
 ****
 1  2  14  15  16  17  18  19  20  21  22  24  25  26 0
 3-21G
 ****
 31  33  36  37  38  39  40  41  42  43  44  45  46 0
 3-21G
 ****


