%nproc=1
%NoSave
%Mem=1900MB
#P OB98/GEN NMR

erre ene a

0 1
  C      710.253    -896.460     -16.622
  O      709.095    -896.680     -15.796
  P      708.289    -895.390     -15.294
  C      709.052    -895.670     -12.805
  O      709.051    -894.890     -13.972
  C      709.882    -895.010     -11.701
  O      709.199    -893.820     -11.228
  C      710.103    -895.880     -10.477
  O      711.069    -896.890     -10.714
  C      710.511    -894.830      -9.463
  O      711.889    -894.480      -9.623
  C      709.640    -893.620      -9.851
  N      708.497    -893.410      -8.970
  C      708.755    -892.660      -7.824
  O      709.852    -892.180      -7.551
  N      707.683    -892.470      -7.008
  C      706.409    -892.950      -7.167
  O      705.510    -892.730      -6.397
  C      706.241    -893.790      -8.369
  C      707.246    -893.970      -9.195
  O      706.946    -896.070     -14.743
  O      708.097    -894.380     -16.377
  H      707.098    -896.940     -14.330
  H      711.975    -894.030     -10.512
  H      707.849    -891.900      -6.164
  H      705.253    -894.230      -8.509
  H      707.154    -894.600     -10.080
  H      710.250    -892.690      -9.885
  H      710.391    -895.160      -8.438
  H      709.176    -896.330     -10.177
  H      710.860    -894.730     -12.154
  H      709.494    -896.660     -13.039
  H      708.021    -895.840     -12.473
  P      710.503    -898.360     -11.037
  C      710.210    -899.000      -8.526
  O      709.593    -898.810      -9.783
  O      711.842    -899.250     -10.902
  O      709.831    -898.480     -12.365
  H      712.357    -899.010     -10.109
  H      709.427    -898.910      -7.745
  H      710.960    -898.250      -8.318
  H      710.653    -900.000      -8.494
  H      710.690    -897.402     -16.882
  H      710.967    -895.871     -16.085
  H      709.963    -895.944     -17.513

 3  4  5  6  7  8  9  10  11  12  13  24  28  29  30  31  32 0
 6-311+G(2d,p)
 ****
 33  34 0
 6-311+G(2d,p)
 ****
 1  2  14  15  16  17  18  19  20  21  22  23  25  26  27 0
 3-21G
 ****
 35  36  37  38  39  40  41  42  43  44  45 0
 3-21G
 ****


