%nproc=1
%NoSave
%Mem=1900MB
#P OB98/GEN NMR

erre ene a

0 1
  C     -198.292     238.203     157.372
  O     -198.425     237.440     156.170
  P     -199.436     236.202     156.130
  C     -197.645     234.334     156.138
  O     -198.715     234.951     155.432
  C     -197.614     232.833     155.835
  O     -198.899     232.214     156.085
  C     -197.317     232.529     154.372
  O     -196.009     232.809     153.916
  C     -197.811     231.100     154.233
  O     -196.835     230.158     154.678
  C     -199.036     231.100     155.177
  N     -200.306     231.159     154.451
  C     -200.610     230.054     153.665
  O     -199.858     229.092     153.526
  N     -201.807     230.108     152.999
  C     -202.690     231.149     153.018
  O     -203.737     231.155     152.385
  C     -202.302     232.297     153.851
  C     -201.147     232.253     154.519
  O     -200.811     236.504     155.638
  O     -199.489     235.745     157.672
  H     -196.567     230.422     155.580
  H     -200.415     235.518     157.884
  H     -202.048     229.312     152.430
  H     -202.973     233.146     153.885
  H     -200.840     233.089     155.139
  H     -199.045     230.194     155.793
  H     -198.039     230.852     153.191
  H     -197.982     233.154     153.759
  H     -196.886     232.359     156.499
  H     -197.764     234.503     157.210
  H     -196.704     234.818     155.852
  P     -195.539     234.265     153.440
  C     -196.234     233.742     150.995
  O     -195.225     234.206     151.870
  O     -194.559     234.987     154.304
  O     -196.931     235.071     153.463
  H     -196.746     235.999     153.709
  H     -195.844     233.754     149.975
  H     -197.111     234.396     151.042
  H     -196.516     232.718     151.250
  H     -197.579     238.986     157.220
  H     -197.959     237.566     158.164
  H     -199.239     238.628     157.631

 3  4  5  6  7  8  9  10  11  12  13  23  28  29  30  31  32 0
 6-311+G(2d,p)
 ****
 33  34 0
 6-311+G(2d,p)
 ****
 1  2  14  15  16  17  18  19  20  21  22  24  25  26  27 0
 3-21G
 ****
 35  36  37  38  39  40  41  42  43  44  45 0
 3-21G
 ****


