%nproc=1
%NoSave
%Mem=1900MB
#P OB98/GEN NMR

erre ene a

0 1
  C     -242.629     -41.916    -107.147
  O     -242.702     -42.995    -108.059
  H     -243.576     -41.371    -107.170
  H     -241.824     -41.237    -107.441
  H     -242.455     -42.283    -106.132
  P     -241.502     -44.054    -108.007
  C     -242.564     -45.821    -106.386
  O     -241.591     -44.806    -106.587
  C     -241.917     -47.050    -105.754
  O     -242.868     -48.126    -105.635
  C     -240.792     -47.655    -106.578
  O     -239.619     -46.872    -106.553
  C     -240.635     -49.005    -105.891
  O     -239.792     -48.917    -104.735
  C     -242.091     -49.338    -105.483
  N     -242.628     -50.441    -106.257
  C     -242.124     -51.706    -105.926
  O     -241.299     -51.824    -105.020
  N     -242.539     -52.789    -106.655
  C     -243.362     -52.624    -107.644
  N     -243.708     -53.736    -108.347
  C     -243.914     -51.309    -108.026
  C     -243.508     -50.269    -107.298
  O     -240.219     -43.114    -107.843
  O     -241.435     -44.981    -109.173
  H     -239.779     -49.811    -104.336
  H     -240.310     -42.447    -107.142
  H     -244.608     -51.226    -108.851
  H     -243.864     -49.267    -107.509
  H     -242.140     -49.609    -104.421
  H     -240.185     -49.746    -106.556
  H     -241.130     -47.833    -107.606
  H     -241.573     -46.775    -104.748
  H     -243.263     -54.608    -108.086
  H     -243.044     -46.088    -107.334
  H     -244.276     -53.718    -109.181
  H     -243.337     -45.415    -105.726
  P     -238.248     -47.407    -107.184
  C     -239.093     -46.862    -109.557
  O     -238.580     -47.868    -108.689
  O     -237.529     -48.432    -106.374
  O     -237.412     -46.063    -107.425
  H     -237.835     -45.419    -108.020
  H     -239.274     -47.284    -110.524
  H     -238.381     -46.068    -109.642
  H     -240.009     -46.479    -109.157

 6  7  8  9  10  11  12  13  14  15  16  26  30  31  32  33  35 0
 6-311+G(2d,p)
 ****
 37  38 0
 6-311+G(2d,p)
 ****
 1  2  3  4  5  17  18  19  20  21  22  23  24  25 0
 3-21G
 ****
 27  28  29  34  36  39  40  41  42  43  44  45  46 0
 3-21G
 ****


