%nproc=1
%NoSave
%Mem=1900MB
#P OB98/GEN NMR

erre ene a

0 1
  C     -123.771     185.096     129.196
  O     -124.780     184.826     130.145
  H     -122.798     184.926     129.660
  H     -123.827     186.140     128.875
  H     -123.865     184.436     128.329
  P     -126.309     184.821     129.668
  C     -126.669     182.521     128.552
  O     -126.809     183.299     129.731
  C     -127.071     181.064     128.812
  O     -127.182     180.378     127.527
  C     -126.059     180.270     129.662
  O     -126.805     179.282     130.388
  C     -125.209     179.636     128.576
  O     -124.359     178.632     129.071
  C     -126.318     179.223     127.599
  N     -125.866     178.834     126.270
  C     -126.337     177.630     125.753
  O     -127.111     176.874     126.338
  N     -125.880     177.301     124.505
  C     -125.034     178.044     123.735
  O     -124.684     177.713     122.609
  C     -124.564     179.300     124.336
  C     -125.000     179.636     125.553
  O     -126.592     185.527     128.384
  O     -127.089     185.498     130.894
  H     -127.297     186.426     130.677
  H     -124.839     178.114     129.753
  H     -126.214     176.435     124.112
  H     -123.883     179.909     123.760
  H     -124.679     180.562     126.019
  H     -126.908     178.407     128.030
  H     -124.553     180.388     128.129
  H     -125.504     180.897     130.365
  H     -128.068     181.049     129.267
  H     -125.620     182.563     128.238
  H     -127.294     182.949     127.762
  P     -127.329     179.495     131.889
  C     -129.355     181.002     131.322
  O     -128.913     179.749     131.833
  O     -126.580     180.539     132.649
  O     -127.194     178.063     132.591
  H     -127.087     178.181     133.553
  H     -130.424     181.038     131.341
  H     -129.012     181.117     130.315
  H     -128.961     181.793     131.926

 6  7  8  9  10  11  12  13  14  15  16  27  31  32  33  34  35 0
 6-311+G(2d,p)
 ****
 36  37 0
 6-311+G(2d,p)
 ****
 1  2  3  4  5  17  18  19  20  21  22  23  24  25 0
 3-21G
 ****
 26  28  29  30  38  39  40  41  42  43  44  45 0
 3-21G
 ****


