%nproc=1
%NoSave
%Mem=1900MB
#P OB98/GEN NMR

erre ene a

0 1
  C      -17.905      37.977     -29.387
  O      -17.068      37.534     -28.338
  H      -17.303      38.095     -30.292
  H      -18.353      38.942     -29.134
  H      -18.691      37.242     -29.578
  P      -17.752      37.402     -26.890
  C      -20.156      36.700     -26.158
  O      -19.257      36.953     -27.227
  C      -21.539      37.239     -26.509
  O      -21.485      38.661     -26.750
  C      -22.138      36.635     -27.774
  O      -22.686      35.344     -27.565
  C      -23.212      37.661     -28.084
  O      -24.326      37.479     -27.191
  C      -22.463      38.978     -27.776
  N      -21.808      39.555     -28.951
  C      -21.628      40.943     -28.951
  O      -22.019      41.626     -28.007
  N      -21.036      41.533     -30.043
  C      -20.647      40.802     -31.041
  N      -20.081      41.440     -32.101
  C      -20.802      39.337     -31.074
  C      -21.383      38.786     -30.011
  O      -17.939      38.920     -26.421
  O      -17.041      36.536     -25.906
  H      -23.987      37.608     -26.286
  H      -18.469      38.950     -25.588
  H      -20.472      38.771     -31.934
  H      -21.532      37.713     -29.967
  H      -23.145      39.727     -27.355
  H      -23.599      37.584     -29.101
  H      -21.416      36.624     -28.598
  H      -22.194      37.079     -25.643
  H      -20.045      42.450     -32.076
  H      -19.773      37.197     -25.260
  H      -19.916      40.982     -32.988
  H      -20.222      35.624     -25.969
  P      -22.852      34.389     -28.845
  C      -21.111      33.071     -30.250
  O      -21.403      34.254     -29.521
  O      -23.655      35.308     -29.878
  O      -23.557      33.095     -28.580
  H      -24.313      34.788     -30.376
  H      -20.115      33.128     -30.638
  H      -21.804      32.971     -31.059
  H      -21.194      32.223     -29.602

 6  7  8  9  10  11  12  13  14  15  16  26  30  31  32  33  35 0
 6-311+G(2d,p)
 ****
 37  38 0
 6-311+G(2d,p)
 ****
 1  2  3  4  5  17  18  19  20  21  22  23  24  25 0
 3-21G
 ****
 27  28  29  34  36  39  40  41  42  43  44  45  46 0
 3-21G
 ****


