%nproc=1
%NoSave
%Mem=1900MB
#P OB98/GEN NMR

erre ene a

0 1
  C     -218.357     205.756      81.731
  O     -219.037     206.125      80.555
  H     -217.331     205.482      81.467
  H     -218.833     204.887      82.192
  H     -218.326     206.587      82.439
  P     -220.587     206.536      80.639
  C     -222.647     205.602      81.855
  O     -221.285     205.376      81.512
  C     -223.429     204.290      81.898
  O     -223.568     203.763      80.550
  C     -222.761     203.200      82.752
  O     -223.733     202.597      83.610
  C     -222.287     202.183      81.728
  O     -222.141     200.874      82.270
  C     -223.357     202.341      80.645
  N     -222.947     201.754      79.377
  C     -223.021     200.360      79.288
  O     -223.420     199.700      80.249
  N     -222.586     199.746      78.142
  C     -222.080     200.457      77.184
  N     -221.642     199.784      76.085
  C     -221.957     201.929      77.246
  C     -222.410     202.507      78.358
  O     -221.234     206.812      79.322
  O     -220.625     207.791      81.631
  H     -221.595     200.340      81.651
  H     -221.448     208.306      81.462
  H     -221.523     202.474      76.422
  H     -222.362     203.584      78.495
  H     -224.303     201.877      80.956
  H     -221.310     202.494      81.336
  H     -221.939     203.575      83.358
  H     -224.446     204.501      82.250
  H     -221.740     198.774      76.089
  H     -223.085     206.286      81.119
  H     -221.210     200.225      75.290
  H     -222.680     206.068      82.844
  P     -223.954     203.300      85.039
  C     -222.617     203.535      87.249
  O     -222.719     202.903      85.982
  O     -225.192     202.498      85.659
  O     -224.240     204.764      84.941
  H     -225.981     203.073      85.682
  H     -221.750     203.172      87.760
  H     -223.490     203.316      87.828
  H     -222.534     204.593      87.114

 6  7  8  9  10  11  12  13  14  15  16  26  30  31  32  33  35 0
 6-311+G(2d,p)
 ****
 37  38 0
 6-311+G(2d,p)
 ****
 1  2  3  4  5  17  18  19  20  21  22  23  24  25 0
 3-21G
 ****
 27  28  29  34  36  39  40  41  42  43  44  45  46 0
 3-21G
 ****


