%nproc=1
%NoSave
%Mem=1900MB
#P OB98/GEN NMR

erre ene a

0 1
  C      194.772      86.070    -176.596
  O      194.267      85.030    -175.788
  H      193.988      86.387    -177.288
  H      195.627      85.708    -177.175
  H      195.073      86.929    -175.992
  P      195.085      84.599    -174.482
  C      193.107      85.009    -172.875
  O      194.018      84.061    -173.413
  C      192.052      84.316    -172.004
  O      191.050      83.718    -172.866
  C      192.664      83.180    -171.178
  O      191.949      82.952    -169.966
  C      192.493      81.974    -172.087
  O      192.504      80.734    -171.382
  C      191.159      82.289    -172.760
  N      188.952      78.652    -175.567
  C      188.972      78.804    -174.194
  N      188.313      77.864    -173.477
  N      189.598      79.774    -173.582
  C      190.271      80.598    -174.420
  C      190.346      80.536    -175.793
  C      189.620      79.478    -176.462
  O      189.588      79.284    -177.673
  N      191.134      81.541    -176.297
  C      191.538      82.205    -175.233
  N      191.021      81.686    -174.072
  O      195.538      85.997    -173.843
  O      196.258      83.698    -174.722
  H      192.266      80.034    -172.018
  H      196.311      85.870    -173.265
  H      188.430      77.905    -175.989
  H      192.187      83.071    -175.250
  H      190.322      81.934    -172.145
  H      193.330      81.953    -172.789
  H      187.993      77.005    -173.896
  H      193.712      83.347    -170.944
  H      188.576      77.782    -172.492
  H      191.535      85.054    -171.382
  H      192.636      85.514    -173.721
  H      193.643      85.767    -172.302
  P      192.588      81.971    -168.874
  C      192.485      83.665    -166.844
  O      192.136      82.421    -167.411
  O      194.146      82.317    -168.917
  O      192.329      80.517    -169.124
  H      194.657      81.548    -169.231
  H      192.069      83.738    -165.861
  H      192.100      84.455    -167.454
  H      193.551      83.745    -166.787

 6  7  8  9  10  11  12  13  14  15  26  29  33  34 0
 6-311+G(2d,p)
 ****
 36  38  39  40  41 0
 6-311+G(2d,p)
 ****
 1  2  3  4  5  16  17  18  19  20  21  22  23  24  25 0
 3-21G
 ****
 27  28  30  31  32  35  37  42  43  44  45  46  47 0
 3-21G
 ****
 48  49 0
 3-21G
 ****


