%nproc=1
%NoSave
%Mem=1900MB
#P OB98/GEN NMR

erre ene a

0 1
  C      809.536      64.089     552.741
  O      809.320      64.369     554.119
  P      807.934      65.059     554.550
  C      806.954      62.838     555.423
  O      806.781      63.934     554.528
  C      805.632      62.064     555.591
  O      805.182      61.603     554.286
  C      805.715      60.807     556.464
  O      805.506      60.953     557.866
  C      804.556      59.982     555.931
  O      803.321      60.414     556.555
  C      804.516      60.336     554.444
  N      804.356      55.435     552.923
  C      803.576      56.153     553.767
  N      803.680      57.452     554.112
  C      804.727      58.028     553.497
  C      805.615      57.421     552.620
  C      805.408      56.064     552.335
  N      806.204      55.332     551.484
  N      806.562      58.333     552.183
  C      806.265      59.453     552.817
  N      805.156      59.320     553.606
  O      807.596      66.334     553.854
  O      808.146      65.301     556.121
  H      803.390      60.164     557.501
  H      807.723      66.152     556.363
  H      802.746      55.607     554.221
  H      806.827      60.370     552.731
  H      803.496      60.451     554.072
  H      804.659      58.915     556.156
  H      806.658      60.277     556.287
  H      804.867      62.743     555.988
  H      807.292      63.202     556.393
  H      806.014      54.348     551.375
  H      807.023      55.773     551.082
  H      807.758      62.202     555.010
  P      806.745      61.014     558.901
  C      806.299      63.423     559.818
  O      807.111      62.567     559.043
  O      807.895      60.141     558.551
  O      806.042      60.676     560.298
  H      805.441      61.376     560.621
  H      806.829      64.378     559.961
  H      806.101      62.986     560.799
  H      805.354      63.626     559.311
  H      810.496      63.634     552.616
  H      809.498      65.000     552.182
  H      808.777      63.422     552.389

 3  4  5  6  7  8  9  10  11  12  22  25  29  30  31  32 0
 6-311+G(2d,p)
 ****
 33  36  37 0
 6-311+G(2d,p)
 ****
 1  2  13  14  15  16  17  18  19  20  21  23  24  26 0
 3-21G
 ****
 27  28  34  35  38  39  40  41  42  43  44  45  46  47  48 0
 3-21G
 ****


