%nproc=1
%NoSave
%Mem=1900MB
#P OB98/GEN NMR

erre ene a

0 1
  C      481.706     259.763      83.172
  O      481.604     258.803      82.138
  H      481.365     259.309      84.104
  H      481.072     260.624      82.948
  H      482.744     260.087      83.298
  P      482.213     259.151      80.697
  C      484.313     257.729      81.183
  O      483.808     259.007      80.820
  C      485.416     257.284      80.216
  O      486.463     258.308      80.197
  C      486.101     255.952      80.598
  O      486.520     255.329      79.377
  C      487.282     256.456      81.403
  O      488.234     255.449      81.650
  C      487.703     257.637      80.514
  N      488.647     258.569      81.120
  C      489.969     258.522      80.685
  O      490.400     257.754      79.823
  N      490.822     259.410      81.284
  C      490.490     260.326      82.247
  O      491.294     261.117      82.725
  C      489.082     260.323      82.667
  C      488.236     259.462      82.093
  O      481.743     260.426      80.084
  O      481.808     257.884      79.803
  H      481.042     258.109      79.244
  H      487.823     254.748      82.191
  H      491.785     259.392      80.982
  H      488.786     261.029      83.436
  H      487.187     259.441      82.381
  H      488.117     257.268      79.572
  H      486.944     256.802      82.381
  H      485.434     255.274      81.142
  H      485.001     257.240      79.201
  H      483.490     257.008      81.158
  H      484.710     257.778      82.207
  P      485.518     254.577      78.373
  C      485.879     256.287      76.457
  O      484.946     255.662      77.335
  O      484.455     253.785      79.058
  O      486.444     253.637      77.465
  H      485.926     252.874      77.144
  H      485.365     256.981      75.826
  H      486.356     255.542      75.854
  H      486.617     256.807      77.032

 6  7  8  9  10  11  12  13  14  15  16  27  31  32  33  34  35 0
 6-311+G(2d,p)
 ****
 36  37 0
 6-311+G(2d,p)
 ****
 1  2  3  4  5  17  18  19  20  21  22  23  24  25 0
 3-21G
 ****
 26  28  29  30  38  39  40  41  42  43  44  45 0
 3-21G
 ****


