%nproc=1
%NoSave
%Mem=1900MB
#P OB98/GEN NMR

erre ene a

0 1
  C       34.564     -44.136     -54.705
  O       33.369     -43.390     -54.825
  H       35.396     -43.528     -55.069
  H       34.501     -45.046     -55.307
  H       34.744     -44.394     -53.658
  P       32.016     -44.139     -54.394
  C       31.498     -44.814     -56.842
  O       31.743     -45.256     -55.515
  C       30.873     -45.933     -57.671
  O       31.827     -46.991     -57.904
  C       29.648     -46.579     -57.032
  O       28.479     -45.822     -57.298
  C       29.639     -47.937     -57.718
  O       29.062     -47.845     -59.039
  C       31.136     -48.266     -57.801
  N       31.526     -52.871     -55.768
  C       30.851     -52.449     -56.896
  N       30.150     -53.387     -57.570
  N       30.849     -51.214     -57.321
  C       31.541     -50.372     -56.519
  C       32.250     -50.666     -55.376
  C       32.287     -52.048     -54.948
  O       32.934     -52.497     -54.006
  N       32.835     -49.542     -54.852
  C       32.453     -48.568     -55.656
  N       31.662     -49.021     -56.680
  O       30.878     -43.047     -54.678
  O       31.967     -44.613     -52.982
  H       28.113     -47.643     -58.958
  H       30.202     -43.110     -53.977
  H       31.517     -53.839     -55.505
  H       32.729     -47.528     -55.546
  H       31.379     -48.838     -58.704
  H       29.035     -48.661     -57.169
  H       29.878     -54.261     -57.143
  H       29.794     -46.719     -55.954
  H       29.598     -53.061     -58.353
  H       30.617     -45.512     -58.652
  H       32.448     -44.514     -57.296
  H       30.825     -43.952     -56.817
  P       27.294     -45.858     -56.221
  C       25.781     -47.547     -57.486
  O       26.566     -47.286     -56.332
  O       26.221     -44.841     -56.837
  O       27.690     -45.446     -54.843
  H       26.232     -44.004     -56.336
  H       25.363     -48.530     -57.418
  H       26.397     -47.481     -58.359
  H       24.992     -46.827     -57.551

 6  7  8  9  10  11  12  13  14  15  26  29  33  34 0
 6-311+G(2d,p)
 ****
 36  38  39  40  41 0
 6-311+G(2d,p)
 ****
 1  2  3  4  5  16  17  18  19  20  21  22  23  24  25 0
 3-21G
 ****
 27  28  30  31  32  35  37  42  43  44  45  46  47 0
 3-21G
 ****
 48  49 0
 3-21G
 ****


