%nproc=1
%NoSave
%Mem=1900MB
#P OB98/GEN NMR

erre ene a

0 1
  C       27.307    -229.411    -243.284
  O       26.909    -229.906    -244.547
  H       27.662    -230.245    -242.674
  H       26.459    -228.942    -242.782
  H       28.118    -228.686    -243.397
  P       26.461    -228.828    -245.645
  C       24.051    -229.515    -246.354
  O       25.441    -229.586    -246.629
  C       23.263    -230.125    -247.514
  O       23.221    -229.162    -248.603
  C       23.888    -231.411    -248.064
  O       22.844    -232.310    -248.449
  C       24.638    -230.936    -249.295
  O       24.862    -231.955    -250.259
  C       23.709    -229.822    -249.790
  N       24.388    -228.873    -250.668
  C       24.872    -229.352    -251.880
  O       24.704    -230.498    -252.298
  N       25.584    -228.452    -252.631
  C       25.870    -227.164    -252.288
  O       26.532    -226.413    -252.995
  C       25.340    -226.717    -250.993
  C       24.636    -227.577    -250.253
  O       27.772    -228.651    -246.546
  O       25.953    -227.533    -245.109
  H       28.331    -227.932    -246.195
  H       25.124    -231.525    -251.099
  H       25.940    -228.785    -253.514
  H       25.554    -225.702    -250.682
  H       24.243    -227.283    -249.287
  H       22.842    -230.250    -250.307
  H       25.612    -230.526    -249.005
  H       24.551    -231.901    -247.348
  H       22.228    -230.293    -247.192
  H       23.762    -228.467    -246.234
  H       23.838    -230.054    -245.426
  P       22.666    -233.651    -247.583
  C       24.046    -235.489    -248.827
  O       22.791    -234.867    -248.624
  O       21.111    -233.591    -247.224
  O       23.587    -233.713    -246.410
  H       20.560    -233.233    -247.941
  H       23.943    -236.272    -249.548
  H       24.395    -235.899    -247.902
  H       24.749    -234.766    -249.184

 6  7  8  9  10  11  12  13  14  15  16  27  31  32  33  34  35 0
 6-311+G(2d,p)
 ****
 36  37 0
 6-311+G(2d,p)
 ****
 1  2  3  4  5  17  18  19  20  21  22  23  24  25 0
 3-21G
 ****
 26  28  29  30  38  39  40  41  42  43  44  45 0
 3-21G
 ****


