%nproc=1
%NoSave
%Mem=1900MB
#P OB98/GEN NMR

erre ene a

0 1
  C      -49.779     270.348      17.596
  O      -50.171     268.976      17.665
  P      -49.848     268.139      18.993
  C      -47.289     268.098      18.689
  O      -48.374     268.528      19.500
  C      -46.064     267.762      19.551
  O      -44.995     267.209      18.728
  C      -45.490     268.996      20.264
  O      -44.937     268.630      21.538
  C      -44.342     269.403      19.362
  O      -43.391     270.214      20.052
  C      -43.827     268.034      18.920
  N      -39.488     266.515      16.661
  C      -40.027     266.217      17.866
  N      -41.196     266.640      18.389
  C      -41.841     267.445      17.526
  C      -41.420     267.828      16.261
  C      -40.177     267.334      15.833
  N      -39.616     267.661      14.620
  N      -42.345     268.670      15.671
  C      -43.280     268.826      16.585
  N      -43.039     268.081      17.708
  O      -50.123     266.676      18.918
  O      -50.783     268.843      20.090
  H      -42.970     269.656      20.729
  H      -51.187     268.154      20.654
  H      -39.435     265.553      18.492
  H      -44.142     269.472      16.489
  H      -43.214     267.563      19.697
  H      -44.727     269.976      18.508
  H      -46.208     269.808      20.412
  H      -46.339     266.991      20.278
  H      -47.035     268.880      17.969
  H      -38.671     267.352      14.448
  H      -40.047     268.384      14.061
  H      -47.606     267.234      18.093
  P      -45.879     268.898      22.819
  C      -45.131     271.364      23.252
  O      -46.145     270.477      22.840
  O      -45.352     268.299      24.082
  O      -47.270     268.268      22.342
  H      -47.574     268.562      21.466
  H      -45.465     272.390      23.073
  H      -44.210     271.195      22.688
  H      -44.937     271.243      24.324
  H      -50.068     270.754      16.649
  H      -48.717     270.422      17.707
  H      -50.258     270.896      18.380

 3  4  5  6  7  8  9  10  11  12  22  25  29  30  31  32 0
 6-311+G(2d,p)
 ****
 33  36  37 0
 6-311+G(2d,p)
 ****
 1  2  13  14  15  16  17  18  19  20  21  23  24  26 0
 3-21G
 ****
 27  28  34  35  38  39  40  41  42  43  44  45  46  47  48 0
 3-21G
 ****


