%nproc=1
%NoSave
%Mem=1900MB
#P OB98/GEN NMR

erre ene a

0 1
  C       -0.584    -191.209    -150.891
  O       -0.389    -191.859    -149.646
  P        0.509    -193.184    -149.533
  C        0.453    -192.443    -147.071
  O        0.522    -193.544    -147.970
  C        0.307    -192.946    -145.639
  O        1.380    -193.880    -145.371
  C        0.415    -191.885    -144.544
  O       -0.792    -191.189    -144.273
  C        0.776    -192.751    -143.344
  O       -0.407    -193.395    -142.836
  C        1.718    -193.786    -143.964
  N        5.604    -193.262    -140.675
  C        4.329    -193.685    -140.511
  N        3.350    -193.777    -141.435
  C        3.805    -193.419    -142.645
  C        5.076    -192.976    -142.969
  C        6.004    -192.902    -141.916
  N        7.307    -192.492    -142.092
  N        5.162    -192.683    -144.317
  C        3.968    -192.963    -144.794
  N        3.117    -193.419    -143.827
  O        1.844    -193.082    -150.187
  O       -0.404    -194.334    -150.160
  H       -1.039    -192.687    -142.608
  H        0.143    -195.114    -150.379
  H        4.057    -193.982    -139.501
  H        3.674    -192.846    -145.828
  H        1.590    -194.784    -143.532
  H        1.206    -192.177    -142.519
  H        1.238    -191.187    -144.745
  H       -0.642    -193.491    -145.559
  H       -0.427    -191.841    -147.334
  H        7.934    -192.595    -141.308
  H        7.650    -192.381    -143.036
  H        1.342    -191.820    -147.184
  P       -0.673    -189.626    -143.914
  C       -3.134    -189.655    -144.803
  O       -2.172    -189.055    -143.966
  O        0.328    -188.878    -144.724
  O       -0.342    -189.648    -142.347
  H       -1.058    -189.971    -141.776
  H       -4.114    -189.230    -144.575
  H       -3.177    -190.734    -144.639
  H       -2.899    -189.452    -145.853
  H       -1.209    -190.352    -150.752
  H       -1.052    -191.884    -151.576
  H        0.362    -190.901    -151.284

 3  4  5  6  7  8  9  10  11  12  22  25  29  30  31  32 0
 6-311+G(2d,p)
 ****
 33  36  37 0
 6-311+G(2d,p)
 ****
 1  2  13  14  15  16  17  18  19  20  21  23  24  26 0
 3-21G
 ****
 27  28  34  35  38  39  40  41  42  43  44  45  46  47  48 0
 3-21G
 ****


