%nproc=1
%NoSave
%Mem=1900MB
#P OB98/GEN NMR

erre ene a

0 1
  C       14.598     -48.072      15.884
  O       13.775     -48.606      14.867
  H       15.435     -47.546      15.416
  H       14.994     -48.872      16.515
  H       14.030     -47.363      16.491
  P       12.512     -49.470      15.346
  C       11.243     -47.733      16.767
  O       11.330     -48.393      15.510
  C       10.993     -46.238      16.567
  O       11.986     -45.724      15.640
  C        9.611     -45.920      15.986
  O        9.135     -44.699      16.556
  C        9.899     -45.702      14.511
  O        8.902     -44.909      13.875
  C       11.286     -45.067      14.570
  N       13.250     -42.534      10.615
  C       12.751     -42.117      11.799
  N       12.269     -42.867      12.811
  C       12.389     -44.178      12.529
  C       12.875     -44.752      11.370
  C       13.313     -43.864      10.371
  N       13.790     -44.275       9.149
  N       12.792     -46.128      11.442
  C       12.274     -46.380      12.631
  N       11.996     -45.229      13.314
  O       12.741     -50.346      16.531
  O       12.100     -50.230      14.000
  H        9.244     -44.620      13.003
  H       12.082     -49.622      13.237
  H       12.729     -41.041      11.950
  H       12.068     -47.368      13.031
  H       11.248     -43.991      14.786
  H        9.937     -46.668      13.994
  H        8.884     -46.714      16.150
  H       11.153     -45.723      17.521
  H       12.170     -47.876      17.333
  H       14.085     -43.570       8.492
  H       13.852     -45.262       8.948
  H       10.419     -48.186      17.329
  P        7.791     -44.720      17.428
  C        8.643     -45.221      19.807
  O        8.136     -44.234      18.920
  O        6.984     -45.972      17.345
  O        6.971     -43.471      16.843
  H        6.030     -43.719      16.756
  H        8.833     -44.778      20.762
  H        9.553     -45.621      19.412
  H        7.925     -46.007      19.914

 6  7  8  9  10  11  12  13  14  15  25  28  32  33  34  35 0
 6-311+G(2d,p)
 ****
 36  39  40 0
 6-311+G(2d,p)
 ****
 1  2  3  4  5  16  17  18  19  20  21  22  23  24 0
 3-21G
 ****
 26  27  29  30  31  37  38  41  42  43  44  45  46  47 0
 3-21G
 ****
 48 0
 3-21G
 ****


