%nproc=1
%NoSave
%Mem=1900MB
#P OB98/GEN NMR

erre ene a

0 1
  C      220.127     625.971     -66.257
  O      220.796     626.833     -67.159
  P      220.969     626.335     -68.674
  C      223.570     626.552     -68.597
  O      222.444     625.712     -68.803
  C      224.829     625.869     -69.128
  O      225.010     624.575     -68.513
  C      224.783     625.597     -70.629
  O      225.073     626.771     -71.381
  C      225.835     624.508     -70.779
  O      227.155     625.075     -70.869
  C      225.669     623.721     -69.462
  N      224.954     622.462     -69.653
  C      225.638     621.471     -70.344
  O      226.777     621.630     -70.794
  N      224.968     620.294     -70.531
  C      223.677     620.036     -70.159
  O      223.107     618.979     -70.407
  C      222.988     621.135     -69.460
  C      223.643     622.279     -69.250
  O      221.063     627.694     -69.512
  O      219.879     625.449     -69.161
  H      227.292     625.591     -70.048
  H      220.625     627.575     -70.384
  H      225.457     619.549     -71.008
  H      221.966     620.965     -69.152
  H      223.151     623.107     -68.748
  H      226.656     623.493     -69.032
  H      225.691     623.910     -71.684
  H      223.804     625.186     -70.912
  H      225.698     626.493     -68.877
  H      223.687     626.754     -67.526
  H      223.404     627.501     -69.111
  P      225.071     626.625     -72.981
  C      227.609     627.228     -73.080
  O      226.583     626.296     -73.374
  O      224.844     628.152     -73.413
  O      224.030     625.675     -73.476
  H      225.253     628.774     -72.788
  H      227.420     627.750     -72.136
  H      227.680     627.956     -73.886
  H      228.561     626.691     -72.998
  H      220.085     626.429     -65.291
  H      220.657     625.044     -66.190
  H      219.133     625.789     -66.609

 3  4  5  6  7  8  9  10  11  12  13  23  28  29  30  31  32 0
 6-311+G(2d,p)
 ****
 33  34 0
 6-311+G(2d,p)
 ****
 1  2  14  15  16  17  18  19  20  21  22  24  25  26 0
 3-21G
 ****
 27  35  36  37  38  39  40  41  42  43  44  45 0
 3-21G
 ****


