%nproc=1
%NoSave
%Mem=1900MB
#P OB98/GEN NMR

erre ene a

0 1
  C       -7.241     -34.171     -25.287
  O       -7.271     -33.042     -26.150
  P       -5.862     -32.440     -26.635
  C       -3.742     -31.745     -25.306
  O       -5.160     -31.868     -25.311
  C       -3.186     -32.015     -23.911
  O       -3.266     -33.422     -23.608
  C       -1.723     -31.639     -23.731
  O       -1.553     -30.255     -23.472
  C       -1.366     -32.455     -22.499
  O       -1.846     -31.791     -21.316
  C       -2.153     -33.749     -22.734
  N        1.801     -36.915     -22.038
  C        1.294     -35.927     -21.272
  N        0.244     -35.120     -21.532
  C       -0.273     -35.388     -22.743
  C        0.163     -36.340     -23.650
  C        1.247     -37.138     -23.255
  N        1.744     -38.164     -24.026
  N       -0.616     -36.317     -24.786
  C       -1.511     -35.379     -24.567
  N       -1.352     -34.795     -23.341
  O       -6.291     -31.116     -27.427
  O       -5.039     -33.356     -27.473
  H       -1.547     -32.321     -20.553
  H       -5.592     -30.867     -28.062
  H        1.791     -35.770     -20.318
  H       -2.294     -35.096     -25.258
  H       -2.576     -34.154     -21.809
  H       -0.287     -32.588     -22.375
  H       -1.117     -31.975     -24.581
  H       -3.814     -31.478     -23.188
  H       -3.471     -30.729     -25.608
  H        2.395     -38.804     -23.597
  H        1.206     -38.456     -24.834
  H       -3.320     -32.450     -26.029
  P       -0.080     -29.654     -23.694
  C        2.211     -30.247     -22.624
  O        0.803     -30.244     -22.496
  O       -0.260     -28.109     -23.320
  O        0.456     -29.847     -25.072
  H        0.411     -27.567     -23.777
  H        2.654     -30.380     -21.634
  H        2.573     -29.304     -23.043
  H        2.523     -31.077     -23.264
  H       -8.242     -34.463     -25.046
  H       -6.717     -33.919     -24.389
  H       -6.741     -34.981     -25.776

 3  4  5  6  7  8  9  10  11  12  22  25  29  30  31  32 0
 6-311+G(2d,p)
 ****
 33  36  37 0
 6-311+G(2d,p)
 ****
 1  2  13  14  15  16  17  18  19  20  21  23  24  26 0
 3-21G
 ****
 27  28  34  35  38  39  40  41  42  43  44  45  46  47  48 0
 3-21G
 ****


