%nproc=1
%NoSave
%Mem=1900MB
#P OB98/GEN NMR

erre ene a

0 1
  C        6.928     -47.934     -30.258
  O        5.814     -47.995     -31.119
  H        6.923     -48.824     -29.621
  H        6.867     -47.053     -29.616
  H        7.858     -47.919     -30.830
  P        5.546     -46.788     -32.143
  C        6.257     -47.631     -34.461
  O        5.180     -47.495     -33.544
  C        6.009     -48.785     -35.433
  O        6.958     -48.707     -36.531
  C        6.154     -50.174     -34.794
  O        5.046     -50.996     -35.169
  C        7.429     -50.722     -35.416
  O        7.482     -52.145     -35.417
  C        7.386     -50.055     -36.795
  N        8.676     -50.107     -37.469
  C        8.763     -50.965     -38.569
  O        7.781     -51.619     -38.925
  N        9.968     -51.104     -39.207
  C       11.009     -50.479     -38.755
  N       12.180     -50.683     -39.415
  C       10.970     -49.585     -37.579
  C        9.782     -49.444     -36.992
  O        6.638     -45.776     -32.214
  O        4.143     -46.168     -31.687
  H        8.367     -52.423     -35.741
  H        4.081     -45.241     -32.017
  H       11.867     -49.091     -37.239
  H        9.655     -48.809     -36.122
  H        6.635     -50.531     -37.438
  H        8.294     -50.352     -34.850
  H        6.221     -50.142     -33.708
  H        5.014     -48.655     -35.879
  H       12.164     -51.309     -40.211
  H        7.180     -47.801     -33.894
  H       13.059     -50.271     -39.141
  H        6.348     -46.700     -35.028
  P        3.838     -51.080     -34.116
  C        2.682     -48.782     -34.451
  O        2.631     -50.183     -34.675
  O        4.386     -50.255     -32.860
  O        3.474     -52.478     -33.740
  H        4.568     -50.863     -32.119
  H        1.816     -48.321     -34.878
  H        3.562     -48.380     -34.908
  H        2.707     -48.590     -33.399

 6  7  8  9  10  11  12  13  14  15  16  26  30  31  32  33  35 0
 6-311+G(2d,p)
 ****
 37  38 0
 6-311+G(2d,p)
 ****
 1  2  3  4  5  17  18  19  20  21  22  23  24  25 0
 3-21G
 ****
 27  28  29  34  36  39  40  41  42  43  44  45  46 0
 3-21G
 ****


