%nproc=1
%NoSave
%Mem=1900MB
#P OB98/GEN NMR

erre ene a

0 1
  C       99.321    -563.371     -54.077
  O      100.212    -563.777     -53.058
  H       99.672    -562.423     -54.494
  H       98.324    -563.220     -53.655
  H       99.285    -564.116     -54.873
  P       99.932    -565.197     -52.368
  C      101.463    -566.613     -53.912
  O      100.135    -566.307     -53.516
  C      102.020    -567.775     -53.091
  O      101.338    -569.000     -53.492
  C      103.526    -568.010     -53.267
  O      104.056    -568.457     -52.007
  C      103.584    -569.178     -54.234
  O      104.818    -569.888     -54.178
  C      102.366    -569.979     -53.767
  N      100.116    -574.445     -54.326
  C      100.363    -573.706     -53.191
  N       99.949    -574.232     -52.015
  N      100.969    -572.543     -53.201
  C      101.300    -572.120     -54.447
  C      101.114    -572.760     -55.648
  C      100.469    -574.062     -55.618
  O      100.238    -574.772     -56.593
  N      101.623    -572.014     -56.690
  C      102.099    -570.926     -56.116
  N      101.931    -570.948     -54.757
  O       98.344    -565.165     -52.145
  O      100.671    -565.450     -51.097
  H      105.448    -569.437     -54.777
  H       98.136    -564.842     -51.250
  H       99.663    -575.340     -54.262
  H      102.579    -570.106     -56.632
  H      102.568    -570.530     -52.843
  H      103.437    -568.818     -55.269
  H       99.440    -575.098     -51.934
  H      104.087    -567.137     -53.607
  H      100.081    -573.682     -51.171
  H      101.770    -567.604     -52.034
  H      102.096    -565.730     -53.753
  H      101.473    -566.870     -54.976
  P      105.514    -567.943     -51.575
  C      104.652    -566.190     -49.857
  O      105.373    -566.434     -51.058
  O      106.260    -567.761     -52.986
  O      106.259    -568.877     -50.680
  H      107.217    -567.885     -52.869
  H      104.649    -565.140     -49.650
  H      105.119    -566.712     -49.048
  H      103.645    -566.534     -49.969

 6  7  8  9  10  11  12  13  14  15  26  29  33  34 0
 6-311+G(2d,p)
 ****
 36  38  39  40  41 0
 6-311+G(2d,p)
 ****
 1  2  3  4  5  16  17  18  19  20  21  22  23  24  25 0
 3-21G
 ****
 27  28  30  31  32  35  37  42  43  44  45  46  47 0
 3-21G
 ****
 48  49 0
 3-21G
 ****


