%nproc=1
%NoSave
%Mem=1900MB
#P OB98/GEN NMR

erre ene a

0 1
  C     1111.849     405.097    -100.617
  O     1112.953     404.359    -100.142
  H     1111.900     406.128    -100.256
  H     1111.871     405.105    -101.711
  H     1110.915     404.633    -100.288
  P     1113.130     404.258     -98.551
  C     1115.303     405.668     -98.630
  O     1114.692     404.448     -98.234
  C     1116.321     406.105     -97.586
  O     1115.610     406.487     -96.378
  C     1117.356     405.030     -97.208
  O     1118.681     405.513     -97.450
  C     1117.180     404.841     -95.708
  O     1118.413     404.683     -95.015
  C     1116.441     406.104     -95.279
  N     1116.649     405.692     -90.206
  C     1117.476     406.295     -91.082
  N     1117.312     406.456     -92.412
  C     1116.132     405.951     -92.815
  C     1115.173     405.333     -92.028
  C     1115.475     405.196     -90.665
  N     1114.655     404.532     -89.774
  N     1114.096     404.934     -92.798
  C     1114.418     405.266     -94.027
  N     1115.648     405.869     -94.091
  O     1112.869     402.709     -98.250
  O     1112.214     405.135     -97.758
  H     1118.196     404.657     -94.060
  H     1112.245     402.618     -97.506
  H     1118.400     406.687     -90.666
  H     1113.828     405.063     -94.915
  H     1117.131     406.934     -95.074
  H     1116.568     403.944     -95.534
  H     1117.197     404.087     -97.746
  H     1116.829     407.006     -97.952
  H     1114.532     406.448     -98.723
  H     1115.008     404.377     -88.842
  H     1113.836     404.062     -90.132
  H     1115.778     405.530     -99.609
  P     1119.365     405.072     -98.837
  C     1120.105     402.778     -97.846
  O     1120.497     403.986     -98.486
  O     1120.211     406.367     -99.246
  O     1118.393     404.674     -99.897
  H     1120.328     406.400    -100.216
  H     1120.967     402.165     -97.682
  H     1119.409     402.255     -98.468
  H     1119.645     403.005     -96.907

 6  7  8  9  10  11  12  13  14  15  25  28  32  33  34  35 0
 6-311+G(2d,p)
 ****
 36  39  40 0
 6-311+G(2d,p)
 ****
 1  2  3  4  5  16  17  18  19  20  21  22  23  24 0
 3-21G
 ****
 26  27  29  30  31  37  38  41  42  43  44  45  46  47  48 0
 3-21G
 ****


