%nproc=1
%NoSave
%Mem=1900MB
#P OB98/GEN NMR

erre ene a

0 1
  C      327.031    -270.343    -311.719
  O      327.607    -269.591    -312.766
  H      326.541    -269.661    -311.026
  H      327.815    -270.884    -311.185
  H      326.288    -271.047    -312.107
  P      328.089    -270.405    -314.066
  C      330.511    -269.494    -314.301
  O      329.177    -269.485    -314.800
  C      331.495    -269.113    -315.398
  O      331.668    -270.211    -316.325
  C      331.066    -267.911    -316.240
  O      331.405    -266.683    -315.606
  C      331.896    -268.130    -317.494
  O      333.259    -267.727    -317.244
  C      331.822    -269.656    -317.663
  N      330.380    -270.878    -322.375
  C      331.588    -270.374    -321.916
  N      332.542    -270.162    -322.848
  N      331.831    -270.101    -320.664
  C      330.776    -270.344    -319.842
  C      329.537    -270.831    -320.180
  C      329.285    -271.143    -321.565
  O      328.237    -271.602    -322.022
  N      328.725    -270.941    -319.080
  C      329.467    -270.499    -318.084
  N      330.725    -270.118    -318.495
  O      326.809    -270.326    -315.030
  O      328.489    -271.818    -313.814
  H      333.230    -266.813    -316.911
  H      326.333    -271.178    -314.997
  H      330.240    -271.063    -323.349
  H      329.148    -270.439    -317.054
  H      332.739    -270.072    -318.089
  H      331.546    -267.542    -318.345
  H      332.411    -270.325    -323.831
  H      329.995    -267.952    -316.494
  H      333.434    -269.799    -322.533
  H      332.467    -268.926    -314.929
  H      330.743    -270.501    -313.935
  H      330.585    -268.783    -313.471
  P      330.256    -265.588    -315.412
  C      331.861    -263.635    -315.993
  O      330.985    -264.206    -315.036
  O      329.567    -266.035    -314.040
  O      329.258    -265.499    -316.520
  H      328.658    -266.362    -314.210
  H      332.269    -262.725    -315.605
  H      331.320    -263.429    -316.893
  H      332.655    -264.320    -316.203

 6  7  8  9  10  11  12  13  14  15  26  29  33  34 0
 6-311+G(2d,p)
 ****
 36  38  39  40  41 0
 6-311+G(2d,p)
 ****
 1  2  3  4  5  16  17  18  19  20  21  22  23  24  25 0
 3-21G
 ****
 27  28  30  31  32  35  37  42  43  44  45  46  47 0
 3-21G
 ****
 48  49 0
 3-21G
 ****


