%nproc=1
%NoSave
%Mem=1900MB
#P OB98/GEN NMR

erre ene a

0 1
  C     -233.738     554.939    -282.087
  O     -233.153     556.042    -282.796
  P     -231.957     556.940    -282.207
  C     -230.867     557.328    -284.517
  O     -231.416     557.931    -283.352
  C     -230.095     558.334    -285.369
  O     -231.018     559.119    -286.188
  C     -229.239     559.337    -284.562
  O     -228.029     559.529    -285.301
  C     -230.112     560.585    -284.580
  O     -229.409     561.775    -284.275
  C     -230.650     560.507    -286.014
  N     -231.783     561.384    -286.315
  C     -231.573     562.421    -287.237
  O     -230.463     562.624    -287.739
  N     -232.631     563.228    -287.565
  C     -233.791     563.039    -287.020
  N     -234.804     563.870    -287.392
  C     -234.052     561.973    -286.029
  C     -233.011     561.191    -285.730
  O     -230.872     556.134    -281.557
  O     -232.647     557.917    -281.141
  H     -232.032     558.061    -280.392
  H     -228.895     561.625    -283.464
  H     -235.035     561.846    -285.606
  H     -233.129     560.367    -285.028
  H     -229.833     560.711    -286.717
  H     -230.908     560.468    -283.846
  H     -228.983     558.983    -283.558
  H     -229.465     557.774    -286.066
  H     -234.593     564.581    -288.094
  H     -231.691     556.914    -285.108
  H     -235.749     563.797    -287.041
  H     -230.213     556.503    -284.212
  P     -226.616     559.355    -284.566
  C     -225.532     558.446    -286.757
  O     -225.471     559.379    -285.695
  O     -226.635     557.810    -284.162
  O     -226.389     560.208    -283.349
  H     -226.061     557.664    -283.381
  H     -225.316     558.968    -287.702
  H     -226.505     557.965    -286.833
  H     -224.761     557.681    -286.599
  H     -234.511     554.502    -282.683
  H     -234.153     555.288    -281.164
  H     -232.986     554.206    -281.885

 3  4  5  6  7  8  9  10  11  12  13  24  27  28  29  30  32 0
 6-311+G(2d,p)
 ****
 34  35 0
 6-311+G(2d,p)
 ****
 1  2  14  15  16  17  18  19  20  21  22  23  25  26 0
 3-21G
 ****
 31  33  36  37  38  39  40  41  42  43  44  45  46 0
 3-21G
 ****


