%nproc=1
%NoSave
%Mem=1900MB
#P OB98/GEN NMR

erre ene a

0 1
  C      -75.181    -642.722      -5.255
  O      -76.482    -643.109      -5.637
  H      -75.083    -642.843      -4.172
  H      -75.012    -641.665      -5.505
  H      -74.434    -643.349      -5.756
  P      -76.795    -643.171      -7.210
  C      -78.454    -645.211      -7.296
  O      -78.257    -643.801      -7.383
  C      -79.942    -645.533      -7.260
  O      -80.575    -644.963      -6.087
  C      -80.729    -644.947      -8.417
  O      -80.461    -645.592      -9.650
  C      -82.159    -645.150      -7.909
  O      -82.593    -646.500      -8.102
  C      -81.991    -644.824      -6.408
  N      -82.489    -643.503      -6.062
  C      -83.827    -643.237      -6.410
  O      -84.502    -644.093      -6.957
  N      -84.333    -641.982      -6.148
  C      -83.603    -641.099      -5.570
  N      -84.167    -639.876      -5.347
  C      -82.200    -641.337      -5.153
  C      -81.714    -642.543      -5.445
  O      -75.838    -644.356      -7.710
  O      -76.614    -641.880      -7.942
  H      -81.852    -647.074      -7.830
  H      -75.953    -645.188      -7.208
  H      -81.630    -640.557      -4.666
  H      -80.697    -642.801      -5.176
  H      -82.526    -645.566      -5.799
  H      -82.871    -644.510      -8.441
  H      -80.541    -643.867      -8.500
  H      -80.056    -646.627      -7.212
  H      -85.135    -639.738      -5.653
  H      -77.948    -645.614      -6.410
  H      -83.690    -639.090      -4.925
  H      -77.986    -645.664      -8.184
  P      -80.672    -644.817     -11.042
  C      -78.655    -645.998     -12.127
  O      -80.052    -645.784     -12.170
  O      -80.161    -643.428     -11.074
  O      -82.251    -644.956     -11.302
  H      -82.575    -645.877     -11.365
  H      -78.370    -646.654     -12.923
  H      -78.391    -646.440     -11.189
  H      -78.147    -645.062     -12.236

 6  7  8  9  10  11  12  13  14  15  16  26  30  31  32  33  35 0
 6-311+G(2d,p)
 ****
 37  38 0
 6-311+G(2d,p)
 ****
 1  2  3  4  5  17  18  19  20  21  22  23  24  25 0
 3-21G
 ****
 27  28  29  34  36  39  40  41  42  43  44  45  46 0
 3-21G
 ****


