%nproc=1
%NoSave
%Mem=1900MB
#P OB98/GEN NMR

erre ene a

0 1
  C      612.107     447.489     285.200
  O      613.330     447.604     284.501
  P      613.914     449.082     284.254
  C      613.141     451.018     282.648
  O      613.177     449.625     282.943
  C      611.972     451.334     281.723
  O      610.747     451.341     282.471
  C      612.049     452.703     281.041
  O      612.963     452.702     279.949
  C      610.585     452.913     280.646
  O      610.292     452.185     279.435
  C      609.845     452.282     281.840
  N      609.353     453.280     282.801
  C      608.519     454.262     282.288
  O      608.201     454.333     281.099
  N      608.077     455.197     283.187
  C      608.431     455.270     284.509
  O      608.037     456.166     285.255
  C      609.330     454.219     284.988
  C      609.745     453.288     284.119
  O      615.407     448.740     283.778
  O      613.818     449.954     285.464
  H      615.457     447.854     283.361
  H      609.376     452.466     279.177
  H      607.447     455.916     282.842
  H      609.651     454.248     286.014
  H      610.426     452.499     284.451
  H      608.990     451.692     281.477
  H      610.355     453.964     280.467
  H      612.338     453.462     281.773
  H      611.909     450.531     280.965
  H      614.093     451.299     282.152
  H      613.065     451.583     283.578
  P      613.467     454.150     279.441
  C      612.217     456.273     278.589
  O      612.177     454.894     278.861
  O      614.317     453.738     278.141
  O      614.245     454.908     280.474
  H      613.880     453.046     277.599
  H      611.415     456.520     277.883
  H      613.181     456.571     278.138
  H      612.072     456.835     279.508
  H      611.843     446.456     285.289
  H      611.340     448.008     284.664
  H      612.212     447.916     286.175

 3  4  5  6  7  8  9  10  11  12  13  24  28  29  30  31  32 0
 6-311+G(2d,p)
 ****
 33  34 0
 6-311+G(2d,p)
 ****
 1  2  14  15  16  17  18  19  20  21  22  23  25  26  27 0
 3-21G
 ****
 35  36  37  38  39  40  41  42  43  44  45 0
 3-21G
 ****


