%nproc=1
%NoSave
%Mem=1900MB
#P OB98/GEN NMR

erre ene a

0 1
  C      -82.782    -592.532    -273.894
  O      -82.249    -592.403    -275.192
  H      -82.346    -591.757    -273.256
  H      -82.527    -593.512    -273.478
  H      -83.869    -592.405    -273.911
  P      -82.751    -593.468    -276.284
  C      -83.455    -591.724    -278.071
  O      -83.876    -592.726    -277.154
  C      -84.639    -590.841    -278.482
  O      -85.192    -590.153    -277.329
  C      -84.302    -589.777    -279.508
  O      -84.311    -590.303    -280.823
  C      -85.423    -588.764    -279.280
  O      -86.638    -589.176    -279.936
  C      -85.581    -588.818    -277.748
  N      -85.840    -584.603    -274.985
  C      -86.855    -585.392    -275.495
  N      -88.116    -584.966    -275.294
  N      -86.641    -586.493    -276.165
  C      -85.328    -586.778    -276.327
  C      -84.240    -586.085    -275.848
  C      -84.491    -584.877    -275.085
  O      -83.640    -584.172    -274.547
  N      -83.055    -586.694    -276.204
  C      -83.431    -587.741    -276.920
  N      -84.795    -587.818    -277.041
  O      -83.592    -594.523    -275.417
  O      -81.674    -594.144    -277.064
  H      -86.520    -589.129    -280.895
  H      -83.526    -595.401    -275.832
  H      -86.074    -583.774    -274.458
  H      -82.758    -588.454    -277.375
  H      -86.629    -588.674    -277.446
  H      -85.164    -587.782    -279.666
  H      -88.326    -583.998    -275.090
  H      -83.328    -589.302    -279.278
  H      -88.862    -585.532    -275.682
  H      -85.425    -591.514    -278.865
  H      -83.036    -592.198    -278.958
  H      -82.681    -591.109    -277.592
  P      -83.095    -589.890    -281.800
  C      -82.272    -592.307    -282.293
  O      -82.003    -591.055    -281.677
  O      -82.409    -588.660    -281.043
  O      -83.514    -589.539    -283.191
  H      -81.844    -588.156    -281.662
  H      -81.452    -592.973    -282.121
  H      -82.402    -592.166    -283.346
  H      -83.164    -592.725    -281.876

 6  7  8  9  10  11  12  13  14  15  26  29  33  34 0
 6-311+G(2d,p)
 ****
 36  38  39  40  41 0
 6-311+G(2d,p)
 ****
 1  2  3  4  5  16  17  18  19  20  21  22  23  24  25 0
 3-21G
 ****
 27  28  30  31  32  35  37  42  43  44  45  46  47 0
 3-21G
 ****
 48  49 0
 3-21G
 ****


