%nproc=1
%NoSave
%Mem=1900MB
#P OB98/GEN NMR

erre ene a

0 1
  C     -190.276      28.523     254.058
  O     -191.508      28.377     254.744
  P     -191.766      27.117     255.702
  C     -193.365      26.013     254.019
  O     -192.147      25.886     254.744
  C     -194.279      24.818     254.289
  O     -195.529      25.018     253.588
  C     -193.696      23.491     253.814
  O     -194.078      22.463     254.733
  C     -194.391      23.228     252.490
  O     -194.436      21.820     252.197
  C     -195.753      23.886     252.728
  N     -198.655      22.594     248.694
  C     -198.250      21.887     249.772
  N     -197.458      22.286     250.792
  C     -197.125      23.579     250.652
  C     -197.465      24.428     249.611
  C     -198.268      23.887     248.590
  N     -198.690      24.614     247.498
  N     -196.910      25.679     249.798
  C     -196.265      25.590     250.940
  N     -196.374      24.344     251.501
  O     -192.725      27.356     256.815
  O     -190.315      26.718     256.241
  H     -193.540      21.561     251.896
  H     -190.366      26.440     257.175
  H     -198.605      20.861     249.820
  H     -195.700      26.387     251.399
  H     -196.448      23.204     253.236
  H     -193.839      23.723     251.682
  H     -192.606      23.516     253.714
  H     -194.504      24.783     255.362
  H     -193.131      26.052     252.953
  H     -199.361      24.179     246.885
  H     -198.548      25.616     247.510
  H     -193.861      26.949     254.300
  P     -192.898      21.478     255.220
  C     -193.368      19.516     253.574
  O     -192.542      20.603     253.927
  O     -193.263      20.740     256.465
  O     -191.681      22.508     255.380
  H     -191.803      23.300     254.812
  H     -192.944      19.023     252.696
  H     -194.371      19.871     253.321
  H     -193.424      18.794     254.393
  H     -190.297      29.419     253.474
  H     -190.124      27.682     253.414
  H     -189.477      28.578     254.768

 3  4  5  6  7  8  9  10  11  12  22  25  29  30  31  32 0
 6-311+G(2d,p)
 ****
 33  36  37 0
 6-311+G(2d,p)
 ****
 1  2  13  14  15  16  17  18  19  20  21  23  24  26 0
 3-21G
 ****
 27  28  34  35  38  39  40  41  42  43  44  45  46  47  48 0
 3-21G
 ****


