%nproc=1
%NoSave
%Mem=1900MB
#P OB98/GEN NMR

erre ene a

0 1
  C     1170.848    -409.531    -903.264
  O     1171.642    -408.365    -903.341
  P     1172.198    -407.761    -904.731
  C     1174.793    -407.856    -904.957
  O     1173.560    -408.548    -905.117
  C     1175.199    -407.694    -903.490
  O     1175.237    -408.981    -902.840
  C     1176.623    -407.115    -903.409
  O     1176.850    -405.720    -903.512
  C     1177.234    -407.781    -902.171
  O     1177.204    -406.952    -901.011
  C     1176.362    -409.027    -901.961
  N     1179.534    -412.459    -900.000
  C     1178.814    -411.477    -899.341
  N     1179.142    -411.262    -898.037
  N     1177.908    -410.757    -899.926
  C     1177.759    -411.022    -901.259
  C     1178.379    -411.997    -901.988
  C     1179.369    -412.813    -901.316
  O     1180.081    -413.657    -901.878
  N     1178.046    -411.931    -903.313
  C     1177.232    -410.899    -903.392
  N     1177.070    -410.298    -902.166
  O     1172.142    -406.273    -904.889
  O     1171.121    -408.395    -905.785
  H     1177.910    -406.284    -901.076
  H     1170.993    -407.741    -906.486
  H     1180.285    -412.939    -899.491
  H     1176.779    -410.527    -904.318
  H     1175.961    -409.053    -900.936
  H     1178.303    -408.012    -902.353
  H     1179.939    -411.697    -897.609
  H     1177.179    -407.547    -904.246
  H     1178.755    -410.429    -897.578
  H     1174.450    -407.088    -902.927
  H     1174.669    -406.872    -905.445
  H     1175.561    -408.396    -905.499
  P     1178.161    -405.035    -904.084
  C     1179.812    -403.879    -902.486
  O     1179.314    -405.113    -902.973
  O     1177.793    -403.453    -904.100
  O     1178.567    -405.466    -905.433
  H     1178.372    -402.998    -904.738
  H     1180.758    -404.059    -901.978
  H     1179.078    -403.439    -901.772
  H     1179.949    -403.156    -903.310
  H     1170.604    -409.730    -902.241
  H     1171.391    -410.359    -903.669
  H     1169.947    -409.387    -903.824

 3  4  5  6  7  8  9  10  11  12  23  26  30  31 0
 6-311+G(2d,p)
 ****
 33  35  36  37  38 0
 6-311+G(2d,p)
 ****
 1  2  13  14  15  16  17  18  19  20  21  22  24  25 0
 3-21G
 ****
 27  28  29  32  34  39  40  41  42  43  44  45  46  47  48  49 0
 3-21G
 ****


