%nproc=1
%NoSave
%Mem=1900MB
#P OB98/GEN NMR

erre ene a

0 1
  C      225.432     862.693     335.382
  O      226.562     862.568     334.523
  P      227.873     863.478     334.601
  C      229.173     864.425     336.666
  O      228.486     863.346     336.072
  C      230.227     863.991     337.704
  O      229.671     862.929     338.549
  C      231.449     863.386     337.006
  O      232.482     864.234     336.522
  C      231.945     862.313     337.970
  O      232.966     862.777     338.843
  C      230.699     861.937     338.768
  N      231.253     856.868     339.240
  C      232.071     857.882     339.680
  N      233.220     857.500     340.316
  N      231.815     859.148     339.541
  C      230.679     859.386     338.825
  C      229.794     858.467     338.313
  C      230.081     857.076     338.529
  O      229.374     856.121     338.156
  N      228.778     859.088     337.635
  C      229.048     860.370     337.709
  N      230.199     860.609     338.436
  O      227.720     864.864     334.063
  O      228.932     862.707     333.664
  H      233.725     863.049     338.306
  H      229.500     863.389     333.259
  H      231.498     855.893     339.405
  H      228.453     861.172     337.290
  H      230.905     861.951     339.841
  H      232.392     861.472     337.411
  H      233.541     856.546     340.345
  H      231.087     862.846     336.125
  H      233.910     858.235     340.436
  H      230.483     864.808     338.378
  H      228.433     865.074     337.137
  H      229.680     865.019     335.894
  P      232.794     864.535     334.972
  C      232.039     866.231     333.214
  O      232.157     865.946     334.595
  O      231.869     863.497     334.176
  O      234.238     864.354     334.578
  H      232.163     863.402     333.260
  H      231.904     867.333     333.098
  H      231.189     865.708     332.794
  H      232.958     865.940     332.670
  H      224.697     861.963     335.114
  H      225.014     863.673     335.281
  H      225.736     862.537     336.396

 3  4  5  6  7  8  9  10  11  12  23  26  30  31 0
 6-311+G(2d,p)
 ****
 33  35  36  37  38 0
 6-311+G(2d,p)
 ****
 1  2  13  14  15  16  17  18  19  20  21  22  24  25 0
 3-21G
 ****
 27  28  29  32  34  39  40  41  42  43  44  45  46  47  48  49 0
 3-21G
 ****


