%nproc=1
%NoSave
%Mem=1900MB
#P OB98/GEN NMR

erre ene a

0 1
  C     -383.039     202.212     565.123
  O     -382.762     203.277     564.228
  P     -383.368     203.195     562.749
  C     -381.092     203.325     561.477
  O     -382.336     203.941     561.776
  C     -380.206     204.296     560.695
  O     -380.858     204.700     559.471
  C     -379.901     205.589     561.440
  O     -378.882     205.397     562.414
  C     -379.494     206.512     560.307
  O     -378.111     206.328     559.961
  C     -380.415     206.041     559.157
  N     -381.534     206.940     558.929
  C     -381.722     207.353     557.610
  O     -380.978     207.008     556.684
  N     -382.775     208.210     557.392
  C     -383.598     208.728     558.352
  O     -384.484     209.545     558.101
  C     -383.332     208.283     559.730
  C     -382.329     207.436     559.954
  O     -384.631     204.177     562.794
  O     -383.750     201.822     562.314
  H     -378.023     205.418     559.608
  H     -385.348     203.824     562.238
  H     -382.939     208.504     556.443
  H     -383.964     208.676     560.517
  H     -382.109     207.097     560.964
  H     -379.839     205.956     558.219
  H     -379.616     207.564     560.570
  H     -380.818     205.972     561.914
  H     -379.271     203.779     560.426
  H     -381.270     202.422     560.880
  H     -380.604     203.025     562.410
  P     -379.327     205.447     563.954
  C     -377.841     207.574     564.293
  O     -378.165     206.261     564.700
  O     -379.118     203.919     564.387
  O     -380.723     205.958     564.145
  H     -378.373     203.510     563.905
  H     -378.734     208.127     563.957
  H     -377.118     207.524     563.471
  H     -377.391     208.105     565.128
  H     -382.571     202.407     566.065
  H     -382.659     201.298     564.718
  H     -384.097     202.128     565.261

 3  4  5  6  7  8  9  10  11  12  13  23  28  29  30  31  32 0
 6-311+G(2d,p)
 ****
 33  34 0
 6-311+G(2d,p)
 ****
 1  2  14  15  16  17  18  19  20  21  22  24  25  26 0
 3-21G
 ****
 27  35  36  37  38  39  40  41  42  43  44  45 0
 3-21G
 ****


