%nproc=1
%NoSave
%Mem=1900MB
#P OB98/GEN NMR

erre ene a

0 1
  C      190.471     174.488    -412.163
  O      191.194     175.282    -411.242
  H      189.408     174.488    -411.906
  H      190.591     174.913    -413.162
  H      190.857     173.465    -412.165
  P      191.169     174.805    -409.710
  C      189.813     176.891    -408.971
  O      191.008     176.137    -408.829
  C      189.531     177.674    -407.694
  O      189.316     176.768    -406.593
  C      190.662     178.598    -407.250
  O      190.666     179.814    -407.980
  C      190.288     178.822    -405.793
  O      189.237     179.803    -405.706
  C      189.757     177.442    -405.382
  N      191.146     175.315    -400.942
  C      190.055     176.025    -401.300
  N      189.745     176.539    -402.505
  C      190.695     176.241    -403.408
  C      191.850     175.508    -403.201
  C      192.070     175.034    -401.895
  N      193.227     174.365    -401.527
  N      192.592     175.422    -404.364
  C      191.902     176.110    -405.249
  N      190.748     176.617    -404.720
  O      192.687     174.357    -409.453
  O      190.209     173.705    -409.403
  H      188.682     179.553    -404.945
  H      192.759     173.390    -409.560
  H      189.336     176.210    -400.508
  H      192.202     176.268    -406.275
  H      188.885     177.514    -404.719
  H      191.122     179.188    -405.186
  H      191.635     178.095    -407.295
  H      188.603     178.240    -407.844
  H      188.978     176.213    -409.172
  H      193.477     174.496    -400.551
  H      193.978     174.423    -402.204
  H      189.929     177.573    -409.817
  P      191.824     180.027    -409.069
  C      192.618     182.186    -407.889
  O      192.144     181.600    -409.094
  O      191.060     179.774    -410.452
  O      193.003     179.127    -408.930
  H      191.513     179.070    -410.957
  H      192.790     183.231    -408.044
  H      193.533     181.713    -407.598
  H      191.888     182.055    -407.118

 6  7  8  9  10  11  12  13  14  15  25  28  32  33  34  35 0
 6-311+G(2d,p)
 ****
 36  39  40 0
 6-311+G(2d,p)
 ****
 1  2  3  4  5  16  17  18  19  20  21  22  23  24 0
 3-21G
 ****
 26  27  29  30  31  37  38  41  42  43  44  45  46  47  48 0
 3-21G
 ****


