%nproc=1
%NoSave
%Mem=1900MB
#P OB98/GEN NMR

erre ene a

0 1
  C     -315.555    -343.163    -571.877
  O     -316.420    -344.262    -572.068
  H     -314.533    -343.465    -572.130
  H     -315.573    -342.838    -570.832
  H     -315.847    -342.332    -572.528
  P     -317.955    -344.058    -571.652
  C     -318.728    -345.794    -573.422
  O     -318.729    -345.404    -572.059
  C     -317.810    -347.003    -573.608
  O     -318.150    -348.030    -572.641
  C     -317.931    -347.675    -574.965
  O     -317.227    -346.983    -575.981
  C     -317.332    -349.041    -574.672
  O     -315.904    -349.027    -574.767
  C     -317.791    -349.295    -573.218
  N     -318.884    -350.262    -573.158
  C     -318.519    -351.597    -573.282
  O     -317.350    -351.971    -573.431
  N     -319.545    -352.504    -573.266
  C     -320.874    -352.205    -573.193
  O     -321.743    -353.059    -573.245
  C     -321.202    -350.776    -573.081
  C     -320.206    -349.881    -573.074
  O     -318.480    -342.979    -572.707
  O     -318.172    -343.615    -570.240
  H     -318.588    -342.115    -572.267
  H     -315.606    -348.328    -574.147
  H     -319.293    -353.476    -573.352
  H     -322.250    -350.499    -573.025
  H     -320.425    -348.817    -573.003
  H     -316.954    -349.686    -572.621
  H     -317.702    -349.788    -575.370
  H     -318.991    -347.801    -575.238
  H     -316.774    -346.687    -573.419
  H     -318.355    -344.969    -574.043
  H     -319.752    -346.027    -573.731
  P     -318.047    -346.553    -577.298
  C     -316.235    -344.777    -578.010
  O     -316.960    -345.961    -578.319
  O     -318.828    -345.270    -576.748
  O     -318.918    -347.638    -577.830
  H     -318.348    -344.837    -576.021
  H     -315.565    -344.550    -578.812
  H     -315.676    -344.926    -577.110
  H     -316.919    -343.965    -577.875

 6  7  8  9  10  11  12  13  14  15  16  27  31  32  33  34  35 0
 6-311+G(2d,p)
 ****
 36  37 0
 6-311+G(2d,p)
 ****
 1  2  3  4  5  17  18  19  20  21  22  23  24  25 0
 3-21G
 ****
 26  28  29  30  38  39  40  41  42  43  44  45 0
 3-21G
 ****


