%nproc=1
%NoSave
%Mem=1900MB
#P OB98/GEN NMR

erre ene a

0 1
  C      -24.239      68.915     130.747
  O      -24.056      67.525     130.490
  P      -25.114      66.508     131.134
  C      -23.754      65.546     133.160
  O      -24.792      66.392     132.700
  C      -24.101      64.945     134.536
  O      -23.927      65.976     135.542
  C      -25.537      64.463     134.694
  O      -25.601      63.572     135.812
  C      -26.259      65.747     135.032
  O      -27.532      65.497     135.623
  C      -25.234      66.479     135.928
  N      -25.272      67.952     135.791
  C      -26.128      68.673     136.621
  O      -26.861      68.156     137.464
  N      -26.154      70.026     136.430
  C      -25.394      70.724     135.542
  O      -25.520      71.928     135.349
  C      -24.410      69.934     134.792
  C      -24.400      68.608     134.938
  O      -24.682      65.089     130.537
  O      -26.536      66.841     130.822
  H      -27.380      64.857     136.355
  H      -25.312      64.809     129.846
  H      -26.817      70.553     136.979
  H      -23.741      70.461     134.120
  H      -23.691      68.008     134.374
  H      -25.399      66.245     136.987
  H      -26.436      66.322     134.118
  H      -25.955      63.978     133.807
  H      -23.393      64.139     134.765
  H      -22.815      66.102     133.214
  H      -23.595      64.733     132.440
  P      -25.713      61.999     135.515
  C      -28.123      61.592     136.314
  O      -27.259      61.710     135.200
  O      -25.077      61.097     136.517
  O      -25.029      61.859     134.071
  H      -24.768      60.931     133.921
  H      -29.123      61.913     136.016
  H      -27.782      62.210     137.151
  H      -28.162      60.546     136.629
  H      -23.467      69.473     130.260
  H      -24.195      69.092     131.801
  H      -25.193      69.224     130.373

 3  4  5  6  7  8  9  10  11  12  13  23  28  29  30  31  32 0
 6-311+G(2d,p)
 ****
 33  34 0
 6-311+G(2d,p)
 ****
 1  2  14  15  16  17  18  19  20  21  22  24  25  26  27 0
 3-21G
 ****
 35  36  37  38  39  40  41  42  43  44  45 0
 3-21G
 ****


