%nproc=1
%NoSave
%Mem=1900MB
#P OB98/GEN NMR

erre ene a

0 1
  C      773.746     261.440     670.240
  O      774.754     260.716     670.895
  P      776.026     260.230     670.009
  C      777.169     262.476     669.363
  O      777.175     261.347     670.240
  C      778.030     263.584     669.938
  O      777.521     263.993     671.237
  C      779.494     263.240     670.153
  O      780.252     263.343     668.961
  C      779.899     264.312     671.149
  O      780.144     265.561     670.465
  C      778.643     264.435     672.039
  N      779.880     264.494     676.999
  C      780.000     265.423     676.014
  N      779.663     265.332     674.713
  C      779.192     264.099     674.438
  C      779.044     263.027     675.332
  C      779.413     263.269     676.645
  N      779.276     262.318     677.652
  N      778.550     261.932     674.662
  C      778.370     262.324     673.439
  N      778.726     263.636     673.243
  O      775.525     260.489     668.518
  O      776.438     258.819     670.237
  H      780.893     265.402     669.856
  H      776.028     259.904     667.900
  H      780.412     266.387     676.333
  H      777.962     261.717     672.639
  H      778.435     265.448     672.321
  H      780.819     264.070     671.683
  H      779.596     262.259     670.618
  H      777.918     264.462     669.262
  H      776.151     262.830     669.210
  H      779.397     262.626     678.586
  H      778.747     261.485     677.442
  H      777.570     262.149     668.367
  P      781.321     262.173     668.671
  C      779.496     260.701     667.551
  O      780.743     261.394     667.407
  O      781.087     261.167     669.907
  O      782.725     262.653     668.575
  H      781.883     260.661     670.071
  H      779.103     260.503     666.537
  H      778.756     261.321     668.076
  H      779.632     259.775     668.074
  H      772.977     261.693     670.939
  H      773.332     260.843     669.454
  H      774.161     262.335     669.827

 3  4  5  6  7  8  9  10  11  12  22  25  29  30  31  32 0
 6-311+G(2d,p)
 ****
 33  36  37 0
 6-311+G(2d,p)
 ****
 1  2  13  14  15  16  17  18  19  20  21  23  24  26 0
 3-21G
 ****
 27  28  34  35  38  39  40  41  42  43  44  45  46  47  48 0
 3-21G
 ****


