%nproc=1
%NoSave
%Mem=1900MB
#P OB98/GEN NMR

erre ene a

0 1
  C       48.522     379.085    -774.768
  O       48.083     378.557    -773.526
  P       48.335     379.426    -772.202
  C       49.938     377.709    -771.120
  O       48.695     378.394    -771.032
  C       50.168     376.826    -769.902
  O       50.471     377.673    -768.755
  C       48.956     375.957    -769.511
  O       49.423     374.634    -769.164
  C       48.439     376.598    -768.238
  O       47.734     375.676    -767.412
  C       49.750     377.121    -767.642
  N       48.572     377.760    -762.775
  C       48.893     376.602    -763.444
  N       48.823     375.450    -762.742
  N       49.233     376.578    -764.712
  C       49.287     377.808    -765.283
  C       49.001     379.033    -764.704
  C       48.559     379.041    -763.325
  O       48.182     380.013    -762.689
  N       49.183     380.056    -765.597
  C       49.570     379.466    -766.717
  N       49.595     378.092    -766.588
  O       46.879     379.946    -771.834
  O       49.294     380.580    -772.373
  H       48.302     374.890    -767.325
  H       46.868     380.925    -771.771
  H       48.298     377.716    -761.805
  H       49.809     379.981    -767.639
  H       50.341     376.276    -767.240
  H       47.763     377.423    -768.500
  H       48.600     375.407    -761.761
  H       48.183     375.882    -770.284
  H       49.070     374.596    -763.227
  H       51.058     376.210    -770.079
  H       50.751     378.436    -771.191
  H       49.939     377.091    -772.034
  P       49.760     373.664    -770.418
  C       47.589     372.275    -769.988
  O       49.005     372.287    -770.107
  O       51.310     373.313    -770.196
  O       49.492     374.284    -771.752
  H       51.723     373.079    -771.055
  H       47.154     373.238    -770.300
  H       47.322     372.078    -768.949
  H       47.191     371.485    -770.624
  H       48.285     378.396    -775.552
  H       49.580     379.239    -774.736
  H       48.031     380.018    -774.952

 3  4  5  6  7  8  9  10  11  12  23  26  30  31  33  0
 6-311+G(2d,p)
 ****
 35  36  37  38 0
 6-311+G(2d,p)
 ****
 1  2  13  14  15  16  17  18  19  20  21  22  24  25  27  28  29 0
 3-21G
 ****
 32  34  39  40  41  42  43  44  45  46  47  48  49 0
 3-21G
 ****


