%nproc=1
%NoSave
%Mem=1900MB
#P OB98/GEN NMR

erre ene a

0 1
  C     -194.952      14.286      -6.019
  O     -193.732      14.590      -6.661
  H     -195.656      15.103      -6.199
  H     -194.799      14.184      -4.942
  H     -195.372      13.363      -6.425
  P     -192.533      13.540      -6.473
  C     -192.625      12.439      -8.824
  O     -192.859      12.295      -7.431
  C     -192.633      11.067      -9.488
  O     -192.336      11.202     -10.897
  C     -191.588      10.105      -8.943
  O     -191.978       9.529      -7.710
  C     -191.513       9.090     -10.071
  O     -192.549       8.101      -9.958
  C     -191.721       9.969     -11.324
  N     -190.473      10.201     -12.046
  C     -190.462       9.792     -13.375
  O     -191.428       9.264     -13.926
  N     -189.282       9.971     -14.046
  C     -188.130      10.475     -13.518
  O     -187.087      10.543     -14.151
  C     -188.207      10.905     -12.110
  C     -189.355      10.742     -11.447
  O     -192.784      12.965      -5.000
  O     -191.164      14.110      -6.630
  H     -192.159      13.374      -4.373
  H     -193.381       8.548     -10.209
  H     -189.251       9.669     -15.007
  H     -187.312      11.316     -11.662
  H     -189.428      11.034     -10.402
  H     -192.425       9.488     -12.014
  H     -190.564       8.555     -10.068
  H     -190.617      10.609      -8.857
  H     -193.640      10.640      -9.390
  H     -191.648      12.907      -8.983
  H     -193.399      13.085      -9.251
  P     -190.918       8.622      -6.918
  C     -189.678      10.612      -5.733
  O     -189.630       9.546      -6.663
  O     -190.452       7.616      -8.069
  O     -191.475       7.972      -5.699
  H     -190.411       8.032      -8.945
  H     -188.729      11.105      -5.706
  H     -189.908      10.228      -4.761
  H     -190.434      11.310      -6.029

 6  7  8  9  10  11  12  13  14  15  16  27  31  32  33  34  35 0
 6-311+G(2d,p)
 ****
 36  37 0
 6-311+G(2d,p)
 ****
 1  2  3  4  5  17  18  19  20  21  22  23  24  25 0
 3-21G
 ****
 26  28  29  30  38  39  40  41  42  43  44  45 0
 3-21G
 ****


