%nproc=1
%NoSave
%Mem=1900MB
#P OB98/GEN NMR

erre ene a

0 1
  C      557.582      57.524     223.771
  O      557.783      58.326     222.625
  H      556.796      57.976     224.380
  H      558.498      57.458     224.371
  H      557.260      56.520     223.474
  P      559.073      58.030     221.712
  C      560.302      60.031     222.782
  O      560.322      58.628     222.531
  C      561.321      60.766     221.910
  O      561.245      62.192     222.122
  C      562.772      60.409     222.212
  O      563.130      59.081     221.896
  C      563.517      61.560     221.561
  O      563.709      61.370     220.159
  C      562.543      62.738     221.810
  N      563.013      63.630     222.862
  C      562.215      64.749     223.118
  O      561.189      65.008     222.489
  N      562.658      65.587     224.102
  C      563.818      65.449     224.814
  O      564.167      66.248     225.671
  C      564.637      64.271     224.478
  C      564.199      63.431     223.537
  O      558.993      58.514     220.292
  O      559.278      56.448     221.843
  H      564.307      60.609     220.058
  H      559.886      56.109     221.139
  H      562.089      66.394     224.307
  H      565.561      64.133     225.011
  H      564.786      62.550     223.273
  H      562.423      63.330     220.894
  H      564.506      61.709     222.002
  H      562.926      60.507     223.294
  H      561.076      60.571     220.862
  H      560.544      60.185     223.836
  H      559.295      60.415     222.595
  P      564.374      58.317     222.543
  C      566.046      58.814     220.587
  O      565.728      58.968     221.968
  O      564.283      56.827     222.607
  O      564.348      58.879     224.054
  H      564.654      58.150     224.633
  H      566.973      59.305     220.378
  H      565.270      59.248     219.992
  H      566.133      57.773     220.355

 6  7  8  9  10  11  12  13  14  15  16  26  31  32  33  34  35 0
 6-311+G(2d,p)
 ****
 36  37 0
 6-311+G(2d,p)
 ****
 1  2  3  4  5  17  18  19  20  21  22  23  24  25 0
 3-21G
 ****
 27  28  29  30  38  39  40  41  42  43  44  45 0
 3-21G
 ****


