%nproc=1
%NoSave
%Mem=1900MB
#P OB98/GEN NMR

erre ene a

0 1
  C      -85.909    -673.270    -374.793
  O      -86.423    -673.502    -376.093
  H      -86.049    -674.173    -374.196
  H      -86.439    -672.440    -374.312
  H      -84.839    -673.046    -374.853
  P      -86.346    -672.274    -377.124
  C      -88.828    -671.811    -376.606
  O      -87.864    -672.072    -377.616
  C      -90.193    -672.374    -377.010
  O      -90.679    -671.628    -378.153
  C      -90.151    -673.851    -377.405
  O      -91.335    -674.495    -376.937
  C      -90.158    -673.812    -378.924
  O      -90.691    -675.006    -379.499
  C      -90.988    -672.559    -379.200
  N      -91.564    -668.428    -382.143
  C      -91.868    -668.665    -380.853
  N      -91.668    -669.795    -380.136
  C      -91.035    -670.725    -380.885
  C      -90.661    -670.625    -382.213
  C      -90.960    -669.414    -382.854
  N      -90.674    -669.168    -384.178
  N      -90.078    -671.807    -382.635
  C      -90.091    -672.597    -381.581
  N      -90.672    -671.988    -380.500
  O      -85.335    -672.405    -378.213
  O      -86.136    -671.030    -376.136
  H      -90.201    -675.769    -379.138
  H      -86.727    -671.087    -375.357
  H      -92.350    -667.849    -380.317
  H      -89.702    -673.609    -381.549
  H      -92.071    -672.755    -379.187
  H      -89.129    -673.684    -379.294
  H      -89.270    -674.362    -377.017
  H      -90.904    -672.197    -376.195
  H      -88.914    -670.729    -376.433
  H      -90.905    -668.265    -384.562
  H      -90.202    -669.882    -384.726
  H      -88.486    -672.280    -375.680
  P      -91.319    -675.149    -375.470
  C      -89.759    -677.015    -376.353
  O      -90.942    -676.707    -375.616
  O      -92.502    -674.847    -374.613
  O      -89.983    -674.537    -374.837
  H      -90.138    -674.353    -373.888
  H      -89.620    -678.076    -376.377
  H      -88.915    -676.555    -375.882
  H      -89.855    -676.645    -377.352

 6  7  8  9  10  11  12  13  14  15  25  28  32  33  34  35 0
 6-311+G(2d,p)
 ****
 36  39  40 0
 6-311+G(2d,p)
 ****
 1  2  3  4  5  16  17  18  19  20  21  22  23  24 0
 3-21G
 ****
 26  27  29  30  31  37  38  41  42  43  44  45  46  47 0
 3-21G
 ****
 48 0
 3-21G
 ****


