%nproc=1
%NoSave
%Mem=1900MB
#P OB98/GEN NMR

erre ene a

0 1
  C      983.788     892.864      24.722
  O      984.955     892.134      25.045
  H      983.221     892.302      23.970
  H      984.064     893.833      24.300
  H      983.148     893.006      25.590
  P      985.807     892.574      26.322
  C      988.251     892.340      25.525
  O      987.189     891.750      26.246
  C      989.390     891.334      25.291
  O      989.820     890.807      26.580
  C      988.994     890.150      24.416
  O      990.162     889.720      23.692
  C      988.609     889.106      25.445
  O      988.590     887.803      24.906
  C      989.674     889.375      26.522
  N      989.308     888.802      27.824
  C      990.210     887.890      28.369
  O      991.238     887.517      27.809
  N      989.847     887.361      29.580
  C      988.684     887.598      30.262
  O      988.404     887.078      31.328
  C      987.759     888.553      29.607
  C      988.108     889.095      28.441
  O      985.103     892.498      27.636
  O      986.277     894.068      25.998
  H      989.451     887.590      24.496
  H      986.381     894.583      26.820
  H      990.487     886.701      30.005
  H      986.820     888.760      30.108
  H      987.447     889.799      27.935
  H      990.634     888.943      26.227
  H      987.610     889.309      25.845
  H      988.183     890.370      23.711
  H      990.248     891.867      24.865
  H      988.624     893.202      26.109
  H      987.875     892.712      24.565
  P      990.240     889.749      22.095
  C      992.287     888.201      22.374
  O      991.698     889.282      21.641
  O      989.782     891.034      21.474
  O      989.295     888.522      21.617
  H      988.937     888.715      20.743
  H      993.256     887.986      21.975
  H      991.666     887.334      22.291
  H      992.379     888.477      23.404

 6  7  8  9  10  11  12  13  14  15  16  26  31  32  33  34  35 0
 6-311+G(2d,p)
 ****
 36  37 0
 6-311+G(2d,p)
 ****
 1  2  3  4  5  17  18  19  20  21  22  23  24  25 0
 3-21G
 ****
 27  28  29  30  38  39  40  41  42  43  44  45 0
 3-21G
 ****


