%nproc=1
%NoSave
%Mem=1900MB
#P OB98/GEN NMR

erre ene a

0 1
  C       47.717     323.675     251.307
  O       48.910     323.324     250.630
  H       47.980     324.167     252.247
  H       47.132     322.779     251.529
  H       47.126     324.365     250.698
  P       48.737     322.563     249.230
  C       50.804     321.088     249.775
  O       50.188     321.982     248.855
  C       52.220     320.752     249.321
  O       52.205     320.116     248.024
  C       53.147     321.958     249.204
  O       53.694     322.309     250.462
  C       54.197     321.430     248.235
  O       55.173     320.608     248.908
  C       53.350     320.590     247.268
  N       52.589     320.272     242.286
  C       53.002     319.314     243.189
  N       53.312     318.100     242.674
  N       53.115     319.523     244.472
  C       52.807     320.790     244.834
  C       52.368     321.823     244.039
  C       52.221     321.570     242.624
  O       51.796     322.358     241.783
  N       52.142     322.958     244.779
  C       52.473     322.620     246.009
  N       52.903     321.319     246.093
  O       48.538     323.755     248.177
  O       47.615     321.582     249.168
  H       54.725     319.854     249.326
  H       47.970     323.444     247.447
  H       52.505     320.047     241.311
  H       52.426     323.272     246.871
  H       53.889     319.708     246.907
  H       54.750     322.241     247.756
  H       53.561     317.986     241.700
  H       52.626     322.807     248.746
  H       53.634     317.398     243.325
  H       52.629     320.023     250.033
  H       50.215     320.169     249.827
  H       50.828     321.554     250.766
  P       53.223     323.700     251.116
  C       55.467     324.847     251.770
  O       54.341     324.090     252.201
  O       51.969     323.278     252.018
  O       52.874     324.765     250.134
  H       51.440     324.067     252.248
  H       56.116     325.025     252.602
  H       55.136     325.782     251.369
  H       55.995     324.302     251.015

 6  7  8  9  10  11  12  13  14  15  26  29  33  34 0
 6-311+G(2d,p)
 ****
 36  38  39  40  41 0
 6-311+G(2d,p)
 ****
 1  2  3  4  5  16  17  18  19  20  21  22  23  24  25 0
 3-21G
 ****
 27  28  30  31  32  35  37  42  43  44  45  46  47 0
 3-21G
 ****
 48  49 0
 3-21G
 ****


