%nproc=1
%NoSave
%Mem=1900MB
#P OB98/GEN NMR

erre ene a

0 1
  C      141.810    -413.584    -182.782
  O      141.540    -413.645    -181.376
  P      141.642    -415.067    -180.650
  C      142.492    -413.880    -178.499
  O      141.599    -414.824    -179.068
  C      141.878    -413.248    -177.249
  O      140.663    -412.522    -177.559
  C      141.493    -414.259    -176.177
  O      142.607    -414.622    -175.373
  C      140.503    -413.450    -175.353
  O      141.213    -412.571    -174.459
  C      139.764    -412.647    -176.430
  N      135.283    -414.412    -174.881
  C      136.304    -413.822    -174.162
  N      136.097    -413.671    -172.834
  N      137.427    -413.412    -174.695
  C      137.486    -413.610    -176.031
  C      136.544    -414.186    -176.853
  C      135.316    -414.646    -176.251
  O      134.382    -415.190    -176.836
  N      136.972    -414.215    -178.154
  C      138.158    -413.645    -178.127
  N      138.527    -413.273    -176.858
  O      143.171    -415.485    -180.901
  O      140.697    -416.097    -181.176
  H      141.611    -413.136    -173.771
  H      143.253    -416.455    -180.908
  H      134.443    -414.710    -174.419
  H      138.789    -413.478    -178.992
  H      139.514    -411.632    -176.093
  H      139.865    -414.086    -174.728
  H      135.237    -413.917    -172.368
  H      140.998    -415.135    -176.617
  H      136.820    -413.210    -172.297
  H      142.606    -412.538    -176.829
  H      142.739    -413.102    -179.226
  H      143.441    -414.379    -178.268
  P      143.306    -416.037    -175.660
  C      145.434    -415.051    -174.547
  O      144.537    -416.137    -174.643
  O      143.996    -415.808    -177.087
  O      142.375    -417.202    -175.676
  H      144.019    -416.647    -177.582
  H      146.105    -415.224    -173.702
  H      144.895    -414.113    -174.385
  H      146.035    -414.979    -175.460
  H      141.703    -412.575    -183.122
  H      141.120    -414.212    -183.305
  H      142.809    -413.919    -182.968

 3  4  5  6  7  8  9  10  11  12  23  26  30  31 0
 6-311+G(2d,p)
 ****
 33  35  36  37  38 0
 6-311+G(2d,p)
 ****
 1  2  13  14  15  16  17  18  19  20  21  22  24  25 0
 3-21G
 ****
 27  28  29  32  34  39  40  41  42  43  44  45  46  47  48  49 0
 3-21G
 ****


