%nproc=1
%NoSave
%Mem=1900MB
#P OB98/GEN NMR

erre ene a

0 1
  C      183.902     -35.480     567.535
  O      183.763     -35.897     568.882
  H      184.967     -35.412     567.300
  H      183.449     -34.494     567.396
  H      183.436     -36.208     566.868
  P      182.264     -36.022     569.443
  C      180.389     -34.297     569.905
  O      181.754     -34.504     569.564
  C      180.205     -32.916     570.531
  O      180.727     -31.900     569.662
  C      178.750     -32.542     570.799
  O      178.314     -33.094     572.028
  C      178.853     -31.025     570.878
  O      179.318     -30.639     572.187
  C      179.924     -30.704     569.821
  N      179.358     -26.817     566.516
  C      179.756     -26.845     567.807
  N      179.830     -27.907     568.641
  C      179.454     -29.029     568.015
  C      179.023     -29.156     566.699
  C      178.989     -27.976     565.930
  N      178.581     -27.951     564.613
  N      178.712     -30.464     566.407
  C      179.009     -31.128     567.506
  N      179.425     -30.300     568.520
  O      182.097     -36.873     570.657
  O      181.494     -36.541     568.137
  H      178.574     -30.777     572.800
  H      181.818     -36.081     567.344
  H      180.051     -25.889     568.226
  H      178.957     -32.209     567.612
  H      180.596     -29.901     570.156
  H      177.892     -30.531     570.725
  H      178.098     -32.816     569.961
  H      180.787     -32.885     571.460
  H      180.053     -35.072     570.602
  H      178.408     -27.049     564.205
  H      178.183     -28.798     564.228
  H      179.801     -34.382     568.987
  P      176.767     -33.448     572.274
  C      174.601     -32.068     572.402
  O      175.993     -32.054     572.100
  O      176.496     -34.187     573.542
  O      176.336     -34.267     570.973
  H      175.501     -34.751     571.143
  H      174.193     -31.090     572.251
  H      174.460     -32.359     573.422
  H      174.104     -32.765     571.760

 6  7  8  9  10  11  12  13  14  15  25  28  32  33  34  35 0
 6-311+G(2d,p)
 ****
 36  39  40 0
 6-311+G(2d,p)
 ****
 1  2  3  4  5  16  17  18  19  20  21  22  23  24 0
 3-21G
 ****
 26  27  29  30  31  37  38  41  42  43  44  45  46  47 0
 3-21G
 ****
 48 0
 3-21G
 ****


