%nproc=1
%NoSave
%Mem=1900MB
#P OB98/GEN NMR

erre ene a

0 1
  C      110.166     -23.950     -42.457
  O      108.945     -23.454     -41.892
  P      108.135     -24.213     -40.732
  C      108.590     -22.523     -38.825
  O      108.811     -23.837     -39.325
  C      107.906     -22.570     -37.457
  O      108.803     -23.123     -36.465
  C      107.505     -21.219     -36.884
  O      106.379     -20.666     -37.539
  C      107.267     -21.576     -35.417
  O      105.944     -22.093     -35.213
  C      108.308     -22.686     -35.177
  N      109.398     -22.265     -34.313
  C      109.243     -22.505     -32.945
  O      108.191     -22.973     -32.510
  N      110.280     -22.191     -32.102
  C      111.332     -21.594     -32.569
  N      112.335     -21.324     -31.690
  C      111.476     -21.200     -33.983
  C      110.483     -21.566     -34.791
  O      107.992     -25.683     -40.956
  O      106.705     -23.497     -40.676
  H      106.041     -24.121     -40.328
  H      105.861     -22.886     -35.778
  H      112.351     -20.665     -34.322
  H      110.515     -21.329     -35.850
  H      107.824     -23.568     -34.741
  H      107.380     -20.709     -34.759
  H      108.355     -20.530     -36.956
  H      107.028     -23.226     -37.538
  H      112.208     -21.616     -30.730
  H      107.940     -21.990     -39.527
  H      113.204     -20.883     -31.954
  H      109.547     -21.995     -38.767
  P      106.335     -19.070     -37.685
  C      107.158     -18.865     -40.137
  O      107.437     -18.649     -38.768
  O      106.941     -18.547     -36.297
  O      104.972     -18.508     -37.925
  H      106.454     -17.756     -36.004
  H      107.715     -18.133     -40.727
  H      106.092     -18.759     -40.355
  H      107.489     -19.868     -40.417
  H      110.513     -23.272     -43.208
  H      109.992     -24.910     -42.896
  H      110.905     -24.038     -41.688

 3  4  5  6  7  8  9  10  11  12  13  24  27  28  29  30  32 0
 6-311+G(2d,p)
 ****
 34  35 0
 6-311+G(2d,p)
 ****
 1  2  14  15  16  17  18  19  20  21  22  23  25  26 0
 3-21G
 ****
 31  33  36  37  38  39  40  41  42  43  44  45  46 0
 3-21G
 ****


