%nproc=1
%NoSave
%Mem=1900MB
#P OB98/GEN NMR

erre ene a

0 1
  C     -109.371     415.901    -272.648
  O     -109.846     414.547    -272.571
  P     -109.645     413.788    -271.165
  C     -111.610     412.176    -271.667
  O     -110.240     412.301    -271.311
  C     -111.958     410.718    -272.010
  O     -111.294     410.305    -273.242
  C     -111.567     409.711    -270.928
  O     -112.542     408.663    -270.929
  C     -110.253     409.157    -271.440
  O     -109.933     407.912    -270.833
  C     -110.545     409.108    -272.938
  N     -107.321     405.990    -275.382
  C     -108.446     405.753    -274.679
  N     -109.239     406.643    -274.042
  C     -108.783     407.898    -274.215
  C     -107.643     408.290    -274.900
  C     -106.880     407.270    -275.500
  N     -105.724     407.505    -276.192
  N     -107.476     409.661    -274.813
  C     -108.496     410.082    -274.091
  N     -109.329     409.055    -273.735
  O     -110.685     414.526    -270.202
  O     -108.252     413.870    -270.634
  H     -109.640     408.074    -269.912
  H     -110.211     415.088    -269.563
  H     -108.753     404.709    -274.621
  H     -108.676     411.105    -273.798
  H     -111.149     408.236    -273.216
  H     -109.435     409.867    -271.220
  H     -111.476     410.145    -269.922
  H     -113.049     410.664    -272.189
  H     -111.832     412.813    -272.537
  H     -105.222     406.714    -276.574
  H     -105.364     408.450    -276.245
  H     -112.235     412.554    -270.852
  P     -113.769     408.829    -269.902
  C     -115.477     407.468    -271.302
  O     -114.705     407.545    -270.120
  O     -114.621     410.037    -270.517
  O     -113.347     409.094    -268.490
  H     -115.126     410.481    -269.811
  H     -115.459     406.439    -271.668
  H     -115.097     408.131    -272.091
  H     -116.508     407.750    -271.072
  H     -109.562     416.291    -273.626
  H     -108.319     415.921    -272.455
  H     -109.879     416.499    -271.920

 3  4  5  6  7  8  9  10  11  12  22  25  29  30  31  32 0
 6-311+G(2d,p)
 ****
 33  36  37 0
 6-311+G(2d,p)
 ****
 1  2  13  14  15  16  17  18  19  20  21  23  24  26 0
 3-21G
 ****
 27  28  34  35  38  39  40  41  42  43  44  45  46  47  48 0
 3-21G
 ****


