%nproc=1
%NoSave
%Mem=1900MB
#P OB98/GEN NMR

erre ene a

0 1
  C      102.256    1145.863    -216.710
  O      102.261    1145.826    -215.283
  P      101.107    1144.969    -214.575
  C      102.494    1142.819    -214.142
  O      101.406    1143.411    -214.832
  C      102.162    1141.360    -213.803
  O      102.186    1140.521    -214.980
  C      103.151    1140.735    -212.837
  O      102.952    1141.197    -211.512
  C      102.849    1139.249    -213.036
  O      101.669    1138.873    -212.306
  C      102.562    1139.183    -214.551
  N      105.385    1135.118    -215.845
  C      104.306    1135.250    -215.045
  N      103.618    1136.370    -214.746
  C      104.130    1137.430    -215.386
  C      105.222    1137.453    -216.243
  C      105.874    1136.224    -216.462
  N      106.977    1136.092    -217.270
  N      105.457    1138.729    -216.708
  C      104.536    1139.475    -216.121
  N      103.700    1138.739    -215.324
  O       99.819    1145.269    -215.475
  O      100.878    1145.344    -213.144
  H      101.376    1138.000    -212.641
  H       99.194    1145.843    -214.988
  H      103.955    1134.335    -214.573
  H      104.434    1140.542    -216.247
  H      101.725    1138.519    -214.782
  H      103.657    1138.597    -212.697
  H      104.186    1140.946    -213.145
  H      101.149    1141.330    -213.371
  H      102.719    1143.371    -213.232
  H      107.435    1135.192    -217.316
  H      107.403    1136.927    -217.660
  H      103.386    1142.875    -214.779
  P      104.232    1141.352    -210.565
  C      104.637    1143.889    -210.503
  O      104.967    1142.667    -211.133
  O      105.169    1140.173    -211.100
  O      103.950    1141.347    -209.100
  H      105.202    1140.145    -212.076
  H      105.230    1144.689    -210.955
  H      104.865    1143.842    -209.430
  H      103.573    1144.109    -210.640
  H      103.072    1146.464    -217.054
  H      101.334    1146.283    -217.053
  H      102.359    1144.869    -217.093

 3  4  5  6  7  8  9  10  11  12  22  25  29  30  31  32 0
 6-311+G(2d,p)
 ****
 33  36  37 0
 6-311+G(2d,p)
 ****
 1  2  13  14  15  16  17  18  19  20  21  23  24  26 0
 3-21G
 ****
 27  28  34  35  38  39  40  41  42  43  44  45  46  47  48 0
 3-21G
 ****


