%nproc=1
%NoSave
%Mem=1900MB
#P OB98/GEN NMR

erre ene a

0 1
  C      438.471     626.652     278.033
  O      439.605     626.657     277.184
  H      438.441     627.593     278.585
  H      438.539     625.826     278.750
  H      437.556     626.556     277.441
  P      439.882     625.304     276.360
  C      442.135     624.750     277.549
  O      441.478     625.186     276.368
  C      443.639     624.962     277.418
  O      444.126     624.365     276.194
  C      444.061     626.434     277.340
  O      444.072     627.073     278.611
  C      445.454     626.284     276.764
  O      446.363     625.845     277.787
  C      445.226     625.186     275.697
  N      444.915     625.721     274.380
  C      445.888     625.589     273.388
  O      446.975     625.052     273.655
  N      445.647     626.085     272.131
  C      444.516     626.666     271.875
  N      444.321     627.159     270.624
  C      443.435     626.816     272.876
  C      443.702     626.326     274.092
  O      439.570     625.716     274.839
  O      439.154     624.092     276.835
  H      446.344     626.520     278.489
  H      439.834     624.980     274.237
  H      442.517     627.313     272.628
  H      442.960     626.404     274.885
  H      446.108     624.538     275.615
  H      445.846     627.231     276.367
  H      443.439     626.998     276.629
  H      444.133     624.451     278.256
  H      445.095     627.097     269.966
  H      441.917     623.688     277.693
  H      443.552     627.775     270.386
  H      441.773     625.307     278.413
  P      443.581     628.589     278.690
  C      445.759     629.514     279.771
  O      444.370     629.268     279.918
  O      442.085     628.475     279.238
  O      443.651     629.352     277.394
  H      441.501     629.120     278.806
  H      446.138     629.965     280.664
  H      445.919     630.173     278.943
  H      446.268     628.590     279.594

 6  7  8  9  10  11  12  13  14  15  16  26  30  31  32  33  35 0
 6-311+G(2d,p)
 ****
 37  38 0
 6-311+G(2d,p)
 ****
 1  2  3  4  5  17  18  19  20  21  22  23  24  25 0
 3-21G
 ****
 27  28  29  34  36  39  40  41  42  43  44  45  46 0
 3-21G
 ****


