%nproc=1
%NoSave
%Mem=1900MB
#P OB98/GEN NMR

erre ene a

0 1
  C     -598.855     127.827     118.930
  O     -598.705     126.410     118.752
  P     -598.007     125.864     117.408
  C     -595.614     126.735     118.011
  O     -596.446     125.626     117.703
  C     -594.223     126.248     118.430
  O     -594.296     125.488     119.657
  C     -593.557     125.317     117.423
  O     -593.036     126.028     116.309
  C     -592.475     124.666     118.286
  O     -591.317     125.510     118.386
  C     -593.188     124.554     119.652
  N     -593.629     123.196     119.944
  C     -592.943     122.525     120.941
  O     -591.968     122.988     121.527
  N     -593.392     121.258     121.226
  C     -594.394     120.594     120.573
  O     -594.737     119.455     120.863
  C     -595.030     121.326     119.473
  C     -594.622     122.571     119.204
  O     -597.974     127.175     116.485
  O     -598.719     124.746     116.718
  H     -590.606     124.970     118.776
  H     -597.995     126.916     115.549
  H     -592.918     120.761     121.966
  H     -595.808     120.830     118.912
  H     -595.081     123.131     118.394
  H     -592.510     124.887     120.452
  H     -592.144     123.702     117.879
  H     -594.266     124.551     117.093
  H     -593.592     127.135     118.616
  H     -596.055     127.303     118.836
  H     -595.550     127.391     117.136
  P     -593.320     125.407     114.854
  C     -594.044     127.531     113.507
  O     -593.030     126.601     113.825
  O     -594.922     125.276     114.898
  O     -592.601     124.126     114.616
  H     -595.335     125.989     115.416
  H     -594.700     127.719     114.360
  H     -594.638     127.155     112.665
  H     -593.572     128.473     113.213
  H     -599.334     128.020     119.867
  H     -599.452     128.225     118.136
  H     -597.891     128.292     118.919

 3  4  5  6  7  8  9  10  11  12  13  23  28  29  30  31  32 0
 6-311+G(2d,p)
 ****
 33  34 0
 6-311+G(2d,p)
 ****
 1  2  14  15  16  17  18  19  20  21  22  24  25  26 0
 3-21G
 ****
 27  35  36  37  38  39  40  41  42  43  44  45 0
 3-21G
 ****


