%nproc=1
%NoSave
%Mem=1900MB
#P OB98/GEN NMR

erre ene a

0 1
  C      535.163     208.928     128.493
  O      534.940     210.341     128.462
  P      533.785     210.886     127.487
  C      532.390     212.064     129.350
  O      533.141     212.197     128.142
  C      532.311     213.413     130.071
  O      533.610     213.864     130.481
  C      531.760     214.528     129.195
  O      530.354     214.430     129.094
  C      532.239     215.769     129.934
  O      531.285     216.214     130.913
  C      533.543     215.293     130.619
  N      534.732     215.933     130.072
  C      535.228     217.026     130.790
  O      534.647     217.414     131.808
  N      536.342     217.672     130.317
  C      536.902     217.274     129.205
  N      538.003     217.954     128.791
  C      536.395     216.139     128.409
  C      535.314     215.524     128.890
  O      532.632     209.791     127.639
  O      534.224     211.042     126.062
  H      531.076     215.427     131.454
  H      532.149     209.693     126.799
  H      536.888     215.848     127.495
  H      534.877     214.681     128.369
  H      533.510     215.506     131.694
  H      532.398     216.605     129.243
  H      532.222     214.485     128.202
  H      531.680     213.288     130.968
  H      538.322     218.731     129.372
  H      532.861     211.319     129.996
  H      538.505     217.733     127.950
  H      531.393     211.684     129.108
  P      529.695     214.693     127.661
  C      529.886     212.362     126.603
  O      529.026     213.287     127.246
  O      530.967     214.748     126.703
  O      528.822     215.904     127.518
  H      530.712     214.999     125.804
  H      529.379     211.385     126.563
  H      530.820     212.243     127.158
  H      530.091     212.686     125.581
  H      535.954     208.707     129.179
  H      535.433     208.588     127.515
  H      534.269     208.433     128.808

 3  4  5  6  7  8  9  10  11  12  13  21  23  27  28  29  30  32 0
 6-311+G(2d,p)
 ****
 34  35 0
 6-311+G(2d,p)
 ****
 1  2  14  15  16  17  18  19  20  22  24  25  26 0
 3-21G
 ****
 31  33  36  37  38  39  40  41  42  43  44  45  46 0
 3-21G
 ****


