%nproc=1
%NoSave
%Mem=1900MB
#P OB98/GEN NMR

erre ene a

0 1
  C     -654.900    -340.904     421.346
  O     -655.056    -340.749     422.744
  H     -654.327    -341.814     421.157
  H     -654.350    -340.054     420.937
  H     -655.872    -340.992     420.854
  P     -656.017    -339.589     423.293
  C     -654.354    -337.685     423.836
  O     -655.316    -338.195     422.921
  C     -653.963    -336.253     423.470
  O     -655.138    -335.573     422.928
  C     -653.462    -335.405     424.663
  O     -652.523    -334.452     424.140
  C     -654.747    -334.733     425.101
  O     -654.539    -333.690     426.017
  C     -655.325    -334.376     423.722
  N     -656.729    -333.968     423.713
  C     -657.018    -332.660     424.082
  O     -656.185    -331.816     424.409
  N     -658.352    -332.321     424.070
  C     -659.384    -333.146     423.718
  O     -660.555    -332.777     423.693
  C     -659.010    -334.516     423.348
  C     -657.719    -334.862     423.354
  O     -656.453    -339.718     424.714
  O     -657.268    -339.632     422.288
  H     -658.017    -340.095     422.717
  H     -655.403    -333.400     426.372
  H     -658.578    -331.378     424.328
  H     -659.805    -335.196     423.075
  H     -657.410    -335.865     423.076
  H     -654.720    -333.585     423.260
  H     -655.391    -335.456     425.616
  H     -652.977    -336.006     425.436
  H     -653.216    -336.280     422.666
  H     -653.468    -338.332     423.797
  H     -654.772    -337.715     424.852
  P     -650.929    -334.629     424.233
  C     -651.032    -333.705     426.649
  O     -650.531    -334.719     425.786
  O     -650.154    -333.606     423.467
  O     -650.641    -336.107     423.667
  H     -649.732    -336.147     423.314
  H     -650.692    -333.886     427.647
  H     -652.102    -333.716     426.629
  H     -650.679    -332.750     426.320

 6  7  8  9  10  11  12  13  14  15  16  27  31  32  33  34  35 0
 6-311+G(2d,p)
 ****
 36  37 0
 6-311+G(2d,p)
 ****
 1  2  3  4  5  17  18  19  20  21  22  23  24  25 0
 3-21G
 ****
 26  28  29  30  38  39  40  41  42  43  44  45 0
 3-21G
 ****


