%nproc=1
%NoSave
%Mem=1900MB
#P OB98/GEN NMR

erre ene a

0 1
  C      -79.835     -99.023     184.378
  O      -78.708     -99.489     185.086
  P      -77.430     -98.546     185.298
  C      -76.743     -98.845     182.836
  O      -76.352     -98.996     184.196
  C      -75.733     -97.977     182.092
  O      -75.710     -96.628     182.626
  C      -74.293     -98.454     182.218
  O      -73.963     -99.688     181.622
  C      -73.531     -97.228     181.741
  O      -73.492     -97.161     180.316
  C      -74.404     -96.082     182.313
  N      -73.785     -95.454     183.478
  C      -73.759     -94.064     183.478
  O      -74.219     -93.373     182.570
  N      -73.150     -93.478     184.555
  C      -72.539     -94.133     185.584
  O      -71.971     -93.543     186.495
  C      -72.583     -95.601     185.520
  C      -73.195     -96.187     184.488
  O      -76.905     -98.492     186.693
  O      -77.920     -97.130     184.733
  H      -73.050     -96.325     180.073
  H      -78.186     -97.136     183.796
  H      -73.108     -92.472     184.569
  H      -72.119     -96.150     186.328
  H      -73.240     -97.269     184.419
  H      -74.562     -95.307     181.552
  H      -72.495     -97.230     182.093
  H      -74.067     -98.574     183.285
  H      -76.044     -97.905     181.047
  H      -77.724     -98.360     182.800
  H      -76.840     -99.832     182.371
  P      -73.624    -101.010     182.460
  C      -71.120    -100.546     182.942
  O      -72.069    -101.344     182.269
  O      -74.590    -102.142     182.347
  O      -73.655    -100.450     183.966
  H      -73.953    -101.161     184.564
  H      -70.118    -100.884     182.663
  H      -71.234    -100.649     184.025
  H      -71.226     -99.497     182.653
  H      -80.578     -99.792     184.344
  H      -79.547     -98.761     183.381
  H      -80.236     -98.162     184.872

 3  4  5  6  7  8  9  10  11  12  13  23  28  29  30  31  32 0
 6-311+G(2d,p)
 ****
 33  34 0
 6-311+G(2d,p)
 ****
 1  2  14  15  16  17  18  19  20  21  22  24  25  26  27 0
 3-21G
 ****
 35  36  37  38  39  40  41  42  43  44  45 0
 3-21G
 ****


