%nproc=1
%NoSave
%Mem=1900MB
#P OB98/GEN NMR

erre ene a

0 1
  C       12.683      73.698      37.660
  O       11.652      74.400      38.323
  P       10.421      75.079      37.562
  C        7.857      75.288      37.936
  O        9.064      74.624      38.296
  C        6.655      74.851      38.784
  O        6.418      73.440      38.585
  C        6.962      75.032      40.273
  O        6.790      76.293      40.887
  C        6.252      73.876      40.969
  O        4.993      74.260      41.522
  C        6.056      72.854      39.847
  N        7.600      69.279      43.098
  C        6.586      70.205      43.242
  N        6.048      70.308      44.476
  N        6.159      70.970      42.268
  C        6.859      70.820      41.118
  C        7.873      69.927      40.852
  C        8.305      69.060      41.924
  O        9.257      68.284      41.863
  N        8.396      70.109      39.598
  C        7.729      71.138      39.118
  N        6.814      71.628      40.018
  O       10.466      75.066      36.067
  O       10.565      76.616      38.036
  H        4.660      73.518      42.057
  H       10.277      77.178      37.291
  H        7.940      68.772      43.907
  H        7.891      71.584      38.142
  H        4.998      72.566      39.767
  H        6.854      73.500      41.804
  H        6.449      69.842      45.280
  H        8.031      74.821      40.401
  H        5.425      71.087      44.662
  H        5.739      75.352      38.459
  H        7.675      75.088      36.875
  H        7.992      76.371      38.038
  P        7.229      76.695      42.371
  C        7.461      78.971      43.522
  O        7.737      78.212      42.356
  O        8.578      75.873      42.625
  O        6.221      76.381      43.433
  H        8.729      75.769      43.584
  H        7.568      80.035      43.292
  H        8.174      78.704      44.309
  H        6.443      78.785      43.877
  H       13.389      73.338      38.379
  H       13.177      74.354      36.973
  H       12.265      72.871      37.125

 3  4  5  6  7  8  9  10  11  12  23  26  30  31 0
 6-311+G(2d,p)
 ****
 33  35  36  37  38 0
 6-311+G(2d,p)
 ****
 1  2  13  14  15  16  17  18  19  20  21  22  24  25 0
 3-21G
 ****
 27  28  29  32  34  39  40  41  42  43  44  45  46  47  48  49 0
 3-21G
 ****


