%nproc=1
%NoSave
%Mem=1900MB
#P OB98/GEN NMR

erre ene a

0 1
  C       33.395    -348.299    -195.764
  O       32.166    -347.866    -195.201
  P       32.236    -347.008    -193.842
  C       31.208    -344.922    -194.997
  O       31.106    -345.873    -193.948
  C       29.831    -344.372    -195.373
  O       29.041    -345.447    -195.957
  C       29.025    -343.800    -194.193
  O       28.270    -342.701    -194.703
  C       28.126    -344.969    -193.827
  O       27.013    -344.608    -193.026
  C       27.798    -345.502    -195.221
  N       23.710    -348.429    -196.174
  C       23.940    -347.108    -196.370
  N       25.057    -346.401    -196.097
  C       26.006    -347.198    -195.581
  C       25.914    -348.550    -195.304
  C       24.695    -349.177    -195.626
  N       24.461    -350.519    -195.416
  N       27.085    -349.024    -194.750
  C       27.873    -347.969    -194.684
  N       27.277    -346.848    -195.194
  O       33.600    -346.187    -194.002
  O       32.213    -347.817    -192.583
  H       27.313    -344.347    -192.131
  H       34.074    -346.121    -193.153
  H       23.114    -346.544    -196.799
  H       28.874    -347.962    -194.272
  H       27.068    -344.871    -195.743
  H       28.704    -345.702    -193.257
  H       29.657    -343.452    -193.369
  H       29.963    -343.606    -196.148
  H       31.639    -345.402    -195.882
  H       23.505    -350.824    -195.490
  H       25.121    -351.016    -194.824
  H       31.883    -344.113    -194.690
  P       28.299    -341.304    -193.910
  C       27.012    -339.959    -195.686
  O       26.965    -340.550    -194.398
  O       29.429    -340.514    -194.731
  O       28.537    -341.389    -192.444
  H       29.265    -340.537    -195.690
  H       26.013    -339.578    -195.929
  H       27.297    -340.704    -196.436
  H       27.722    -339.129    -195.689
  H       33.202    -348.854    -196.658
  H       33.909    -348.921    -195.062
  H       34.000    -347.448    -195.997

 3  4  5  6  7  8  9  10  11  12  22  25  29  30  31  32 0
 6-311+G(2d,p)
 ****
 33  36  37 0
 6-311+G(2d,p)
 ****
 1  2  13  14  15  16  17  18  19  20  21  23  24  26 0
 3-21G
 ****
 27  28  34  35  38  39  40  41  42  43  44  45  46  47  48 0
 3-21G
 ****


