%nproc=1
%NoSave
%Mem=1900MB
#P OB98/GEN NMR

erre ene a

0 1
  C      -89.947      35.887      54.016
  O      -89.176      36.734      53.169
  P      -89.970      37.690      52.156
  C      -90.479      39.665      53.807
  O      -89.786      39.200      52.663
  C      -89.716      40.819      54.483
  O      -88.345      40.396      54.704
  C      -89.617      42.103      53.666
  O      -89.282      43.181      54.545
  C      -88.440      41.804      52.764
  O      -87.894      42.993      52.199
  C      -87.497      41.013      53.700
  N      -86.701      39.980      53.004
  C      -86.110      40.308      51.785
  O      -86.213      41.410      51.247
  N      -85.416      39.306      51.163
  C      -85.220      38.048      51.647
  O      -84.663      37.163      51.008
  C      -85.742      37.798      52.996
  C      -86.455      38.753      53.598
  O      -91.505      37.359      52.453
  O      -89.614      37.475      50.723
  H      -87.156      42.712      51.612
  H      -91.878      36.817      51.734
  H      -85.040      39.510      50.247
  H      -85.549      36.830      53.443
  H      -86.866      38.577      54.589
  H      -86.789      41.683      54.206
  H      -88.763      41.169      51.934
  H      -90.517      42.351      53.097
  H      -90.162      41.018      55.465
  H      -90.627      38.843      54.512
  H      -91.477      40.011      53.515
  P      -90.160      44.520      54.459
  C      -91.799      44.201      56.413
  O      -90.627      44.850      55.957
  O      -91.238      44.534      53.429
  O      -89.058      45.652      54.180
  H      -89.488      46.447      53.818
  H      -91.730      44.072      57.498
  H      -91.923      43.221      55.945
  H      -92.667      44.826      56.184
  H      -89.292      35.309      54.634
  H      -90.543      35.231      53.417
  H      -90.585      36.485      54.633

 3  4  5  6  7  8  9  10  11  12  13  23  28  29  30  31  32 0
 6-311+G(2d,p)
 ****
 33  34 0
 6-311+G(2d,p)
 ****
 1  2  14  15  16  17  18  19  20  21  22  24  25  26  27 0
 3-21G
 ****
 35  36  37  38  39  40  41  42  43  44  45 0
 3-21G
 ****


