%nproc=1
%NoSave
%Mem=1900MB
#P OB98/GEN NMR

erre ene a

0 1
  C      529.233     185.249    -188.065
  O      527.859     185.534    -187.890
  H      529.808     185.853    -187.357
  H      529.549     185.494    -189.078
  H      529.427     184.193    -187.860
  P      526.842     184.776    -188.879
  C      525.939     187.171    -189.198
  O      525.607     185.796    -189.032
  C      524.732     188.058    -188.887
  O      523.667     187.737    -189.823
  C      524.176     187.852    -187.467
  O      523.705     189.106    -186.970
  C      522.987     186.925    -187.699
  O      522.025     187.015    -186.652
  C      522.493     187.411    -189.063
  N      517.988     186.473    -191.262
  C      518.569     187.613    -190.832
  N      519.784     187.775    -190.275
  C      520.453     186.605    -190.235
  C      519.994     185.362    -190.632
  C      518.694     185.314    -191.162
  N      518.087     184.155    -191.577
  N      520.953     184.399    -190.386
  C      521.975     185.046    -189.860
  N      521.705     186.389    -189.736
  O      526.468     183.388    -188.482
  O      527.587     184.918    -190.288
  H      521.278     186.411    -186.861
  H      527.908     185.829    -190.435
  H      517.960     188.517    -190.938
  H      522.913     184.606    -189.547
  H      521.856     188.315    -188.994
  H      523.328     185.892    -187.757
  H      524.899     187.422    -186.782
  H      525.005     189.108    -189.058
  H      526.267     187.358    -190.232
  H      517.143     184.204    -191.941
  H      518.589     183.278    -191.517
  H      526.769     187.403    -188.523
  P      524.751     190.119    -186.312
  C      523.820     189.428    -184.011
  O      524.249     190.509    -184.839
  O      525.147     191.285    -187.162
  O      526.019     189.185    -186.008
  H      526.840     189.656    -186.247
  H      523.510     189.808    -183.060
  H      524.629     188.741    -183.874
  H      522.999     188.925    -184.478

 6  7  8  9  10  11  12  13  14  15  25  28  32  33  34  35 0
 6-311+G(2d,p)
 ****
 36  39  40 0
 6-311+G(2d,p)
 ****
 1  2  3  4  5  16  17  18  19  20  21  22  23  24 0
 3-21G
 ****
 26  27  29  30  31  37  38  41  42  43  44  45  46  47 0
 3-21G
 ****
 48 0
 3-21G
 ****


