%nproc=1
%NoSave
%Mem=1900MB
#P OB98/GEN NMR

erre ene a

0 1
  C       61.265    -872.443     361.418
  O       60.407    -873.552     361.118
  P       58.822    -873.532     361.367
  C       57.974    -874.253     359.035
  O       58.120    -874.610     360.408
  C       58.048    -875.488     358.124
  O       59.343    -876.099     358.198
  C       57.056    -876.595     358.466
  O       55.741    -876.251     358.040
  C       57.677    -877.780     357.740
  O       57.321    -877.781     356.348
  C       59.183    -877.505     357.925
  N       59.778    -878.327     358.976
  C       60.301    -879.563     358.574
  O       60.203    -879.941     357.404
  N       60.913    -880.354     359.527
  C       60.918    -879.985     360.769
  N       61.536    -880.804     361.662
  C       60.296    -878.731     361.245
  C       59.750    -877.960     360.297
  O       58.218    -872.163     361.293
  O       58.623    -874.148     362.833
  H       57.543    -876.897     356.007
  H       57.837    -873.742     363.244
  H       60.304    -878.465     362.289
  H       59.285    -877.021     360.560
  H       59.726    -877.696     356.986
  H       57.355    -878.741     358.156
  H       57.066    -876.774     359.549
  H       57.896    -875.144     357.092
  H       61.955    -881.651     361.304
  H       58.787    -873.564     358.774
  H       61.604    -880.604     362.646
  H       57.020    -873.732     358.900
  P       54.501    -876.453     359.032
  C       53.115    -874.370     358.451
  O       53.221    -875.787     358.354
  O       54.748    -876.061     360.458
  O       54.184    -878.020     358.924
  H       53.833    -878.332     359.776
  H       52.470    -874.010     357.645
  H       54.101    -873.901     358.358
  H       52.672    -874.108     359.406
  H       62.274    -872.695     361.167
  H       61.203    -872.216     362.462
  H       60.958    -871.590     360.849

 3  4  5  6  7  8  9  10  11  12  13  23  27  28  29  30  32 0
 6-311+G(2d,p)
 ****
 34  35 0
 6-311+G(2d,p)
 ****
 1  2  14  15  16  17  18  19  20  21  22  24  25  26 0
 3-21G
 ****
 31  33  36  37  38  39  40  41  42  43  44  45  46 0
 3-21G
 ****


