%nproc=1
%NoSave
%Mem=1900MB
#P OB98/GEN NMR

erre ene a

0 1
  C     -504.680    -742.676    -655.968
  O     -505.803    -742.961    -656.784
  P     -505.540    -743.328    -658.319
  C     -507.525    -745.005    -658.279
  O     -506.929    -743.878    -658.906
  C     -508.799    -744.583    -657.542
  O     -509.706    -743.911    -658.435
  C     -509.599    -745.749    -656.977
  O     -509.069    -746.206    -655.737
  C     -510.954    -745.101    -656.768
  O     -510.955    -744.326    -655.557
  C     -511.057    -744.176    -657.991
  N     -515.723    -745.227    -659.651
  C     -515.313    -744.445    -658.595
  N     -516.299    -743.911    -657.822
  N     -514.067    -744.193    -658.296
  C     -513.187    -744.793    -659.143
  C     -513.465    -745.600    -660.229
  C     -514.860    -745.872    -660.532
  O     -515.275    -746.602    -661.419
  N     -512.326    -746.026    -660.846
  C     -511.346    -745.482    -660.139
  N     -511.823    -744.763    -659.069
  O     -504.632    -744.642    -658.234
  O     -504.885    -742.244    -659.119
  H     -511.868    -743.996    -655.434
  H     -504.186    -744.801    -659.091
  H     -516.694    -745.385    -659.833
  H     -510.296    -745.593    -660.354
  H     -511.517    -743.206    -657.736
  H     -511.771    -745.823    -656.679
  H     -517.275    -744.116    -657.959
  H     -509.695    -746.560    -657.700
  H     -516.029    -743.378    -657.005
  H     -508.517    -743.877    -656.749
  H     -506.815    -745.439    -657.569
  H     -507.756    -745.760    -659.045
  P     -509.601    -747.625    -655.202
  C     -507.096    -748.111    -654.710
  O     -508.433    -748.193    -654.260
  O     -509.528    -748.550    -656.512
  O     -510.964    -747.594    -654.615
  H     -510.177    -749.271    -656.455
  H     -506.434    -748.285    -653.858
  H     -506.888    -747.118    -655.123
  H     -506.909    -748.874    -655.466
  H     -505.009    -742.450    -654.975
  H     -504.152    -741.836    -656.369
  H     -504.031    -743.527    -655.944

 3  4  5  6  7  8  9  10  11  12  23  26  30  31 0
 6-311+G(2d,p)
 ****
 33  35  36  37  38 0
 6-311+G(2d,p)
 ****
 1  2  13  14  15  16  17  18  19  20  21  22  24  25 0
 3-21G
 ****
 27  28  29  32  34  39  40  41  42  43  44  45  46  47  48  49 0
 3-21G
 ****


