%nproc=1
%NoSave
%Mem=1900MB
#P OB98/GEN NMR

erre ene a

0 1
  C     -857.102     630.645    1968.934
  O     -856.548     629.360    1968.643
  P     -855.042     629.086    1969.152
  C     -853.957     629.717    1966.874
  O     -854.050     629.986    1968.266
  C     -853.327     630.903    1966.142
  O     -852.093     631.306    1966.799
  C     -852.957     630.618    1964.714
  O     -854.098     630.586    1963.875
  C     -852.002     631.760    1964.412
  O     -852.719     632.948    1964.126
  C     -851.247     631.907    1965.758
  N     -846.450     632.061    1963.980
  C     -847.502     632.852    1963.789
  N     -848.753     632.744    1964.305
  C     -848.850     631.665    1965.094
  C     -847.858     630.723    1965.390
  C     -846.600     630.974    1964.785
  N     -845.524     630.113    1964.967
  N     -848.334     629.777    1966.237
  C     -849.599     630.074    1966.454
  N     -849.935     631.209    1965.775
  O     -854.747     627.569    1968.664
  O     -854.881     629.191    1970.662
  H     -853.354     632.756    1963.402
  H     -854.727     626.966    1969.432
  H     -847.335     633.722    1963.137
  H     -850.290     629.491    1967.028
  H     -851.072     632.931    1966.032
  H     -851.335     631.551    1963.540
  H     -852.412     629.643    1964.638
  H     -854.043     631.745    1966.186
  H     -854.965     629.525    1966.479
  H     -844.680     630.305    1964.449
  H     -845.635     629.278    1965.503
  H     -853.368     628.801    1966.735
  P     -854.784     629.146    1963.594
  C     -853.451     628.669    1961.436
  O     -853.644     628.323    1962.817
  O     -855.816     629.507    1962.407
  O     -855.366     628.466    1964.778
  H     -855.401     630.075    1961.740
  H     -852.602     628.064    1961.038
  H     -853.176     629.756    1961.357
  H     -854.339     628.454    1960.854
  H     -858.098     630.700    1968.547
  H     -856.500     631.404    1968.480
  H     -857.123     630.793    1969.994

 3  4  5  6  7  8  9  10  11  12  22  25  29  30  31  32 0
 6-311+G(2d,p)
 ****
 33  36  37 0
 6-311+G(2d,p)
 ****
 1  2  13  14  15  16  17  18  19  20  21  23  24  26 0
 3-21G
 ****
 27  28  34  35  38  39  40  41  42  43  44  45  46  47  48 0
 3-21G
 ****


