%nproc=1
%NoSave
%Mem=1900MB
#P OB98/GEN NMR

erre ene a

0 1
  C     -818.047     225.930     577.766
  O     -819.173     225.151     577.317
  P     -819.192     223.554     577.425
  C     -818.043     222.490     575.378
  O     -817.871     222.921     576.741
  C     -816.823     221.684     574.873
  O     -816.633     220.449     575.623
  C     -816.922     221.281     573.376
  O     -815.570     221.265     572.899
  C     -817.483     219.885     573.459
  O     -817.259     219.112     572.284
  C     -816.728     219.361     574.690
  N     -816.615     214.269     575.327
  C     -815.717     215.131     574.822
  N     -815.810     216.465     574.711
  C     -816.958     216.928     575.247
  C     -817.976     216.155     575.815
  C     -817.766     214.768     575.812
  N     -818.725     213.878     576.283
  N     -819.020     216.966     576.206
  C     -818.623     218.198     575.888
  N     -817.402     218.209     575.309
  O     -820.467     222.926     576.969
  O     -818.968     223.261     578.994
  H     -817.728     219.524     571.542
  H     -819.606     222.581     579.281
  H     -814.803     214.676     574.446
  H     -819.231     219.071     576.046
  H     -815.701     219.046     574.439
  H     -818.574     219.923     573.629
  H     -817.523     221.964     572.776
  H     -815.938     222.290     575.058
  H     -818.196     223.351     574.752
  H     -818.526     212.879     576.182
  H     -819.630     214.223     576.556
  H     -818.943     221.851     575.333
  P     -814.966     222.459     572.009
  C     -815.700     221.736     569.666
  O     -815.933     222.616     570.740
  O     -813.522     222.333     571.680
  O     -815.264     223.793     572.872
  H     -814.672     224.508     572.550
  H     -814.807     222.060     569.105
  H     -816.558     221.737     569.005
  H     -815.532     220.707     570.035
  H     -818.244     226.969     577.602
  H     -817.173     225.642     577.220
  H     -817.888     225.758     578.810

 3  4  5  6  7  8  9  10  11  12  22  25  29  30  31  32 0
 6-311+G(2d,p)
 ****
 33  36  37 0
 6-311+G(2d,p)
 ****
 1  2  13  14  15  16  17  18  19  20  21  23  24  26 0
 3-21G
 ****
 27  28  34  35  38  39  40  41  42  43  44  45  46  47  48 0
 3-21G
 ****


