%nproc=1
%NoSave
%Mem=1900MB
#P OB98/GEN NMR

erre ene a

0 1
  C       63.481    -220.974      67.495
  O       62.467    -221.859      67.064
  H       63.684    -221.164      68.553
  H       63.146    -219.941      67.381
  H       64.400    -221.134      66.926
  P       62.160    -221.886      65.488
  C       59.749    -220.928      65.556
  O       61.108    -220.708      65.206
  C       58.928    -219.668      65.300
  O       59.171    -218.689      66.336
  C       59.242    -218.972      63.979
  O       58.553    -219.572      62.890
  C       58.711    -217.577      64.264
  O       57.273    -217.573      64.161
  C       59.137    -217.370      65.723
  N       61.597    -213.223      67.284
  C       60.244    -213.498      67.269
  N       59.425    -212.526      67.726
  N       59.734    -214.623      66.839
  C       60.668    -215.498      66.399
  C       62.036    -215.342      66.367
  C       62.587    -214.096      66.852
  O       63.779    -213.809      66.910
  N       62.657    -216.454      65.864
  C       61.669    -217.276      65.574
  N       60.440    -216.741      65.874
  O       61.281    -223.216      65.304
  O       63.360    -221.904      64.602
  H       56.969    -216.708      64.493
  H       61.508    -223.625      64.447
  H       61.935    -212.335      67.616
  H       61.787    -218.264      65.150
  H       58.421    -216.763      66.286
  H       59.084    -216.831      63.561
  H       59.748    -211.618      68.026
  H       60.322    -218.921      63.797
  H       58.431    -212.717      67.756
  H       57.866    -219.940      65.350
  H       59.688    -221.189      66.617
  H       59.358    -221.760      64.961
  P       59.260    -219.527      61.446
  C       58.028    -217.421      60.552
  O       59.253    -217.984      61.011
  O       58.160    -220.186      60.487
  O       60.572    -220.229      61.366
  H       58.590    -220.543      59.688
  H       58.180    -216.392      60.301
  H       57.291    -217.494      61.324
  H       57.693    -217.954      59.687

 6  7  8  9  10  11  12  13  14  15  26  29  33  34 0
 6-311+G(2d,p)
 ****
 36  38  39  40  41 0
 6-311+G(2d,p)
 ****
 1  2  3  4  5  16  17  18  19  20  21  22  23  24  25 0
 3-21G
 ****
 27  28  30  31  32  35  37  42  43  44  45  46  47 0
 3-21G
 ****
 48  49 0
 3-21G
 ****


