%nproc=1
%NoSave
%Mem=1900MB
#P OB98/GEN NMR

erre ene a

0 1
  C      -64.490     -40.132    -388.052
  O      -65.682     -40.819    -387.715
  H      -63.997     -39.816    -387.128
  H      -64.715     -39.244    -388.648
  H      -63.812     -40.788    -388.605
  P      -66.594     -41.383    -388.904
  C      -67.337     -43.745    -388.161
  O      -67.664     -42.361    -388.215
  C      -68.526     -44.544    -387.637
  O      -68.710     -44.305    -386.222
  C      -69.857     -44.189    -388.305
  O      -69.975     -44.853    -389.553
  C      -70.839     -44.700    -387.256
  O      -70.932     -46.134    -387.342
  C      -70.138     -44.290    -385.949
  N      -73.954     -41.202    -384.646
  C      -73.985     -42.480    -385.169
  N      -75.210     -42.998    -385.420
  N      -72.913     -43.186    -385.438
  C      -71.762     -42.514    -385.205
  C      -71.601     -41.242    -384.706
  C      -72.790     -40.493    -384.356
  O      -72.811     -39.364    -383.879
  N      -70.278     -40.874    -384.670
  C      -69.637     -41.943    -385.107
  N      -70.498     -42.961    -385.460
  O      -65.868     -42.005    -390.062
  O      -67.475     -40.123    -389.351
  H      -71.499     -46.416    -386.598
  H      -67.048     -39.634    -390.081
  H      -74.816     -40.713    -384.479
  H      -68.561     -42.034    -385.186
  H      -70.325     -44.996    -385.137
  H      -71.841     -44.299    -387.379
  H      -76.034     -42.412    -385.496
  H      -69.986     -43.094    -388.398
  H      -75.255     -43.916    -385.842
  H      -68.298     -45.616    -387.759
  H      -66.479     -43.856    -387.488
  H      -67.055     -44.108    -389.150
  P      -70.709     -44.150    -390.799
  C      -69.056     -45.250    -392.453
  O      -70.417     -45.110    -392.047
  O      -70.346     -42.711    -391.015
  O      -72.266     -44.388    -390.532
  H      -72.693     -43.679    -389.984
  H      -69.000     -45.913    -393.291
  H      -68.481     -45.649    -391.643
  H      -68.666     -44.293    -392.730

 6  7  8  9  10  11  12  13  14  15  26  29  33  34 0
 6-311+G(2d,p)
 ****
 36  38  39  40  41 0
 6-311+G(2d,p)
 ****
 1  2  3  4  5  16  17  18  19  20  21  22  23  24  25 0
 3-21G
 ****
 27  28  30  31  32  35  37  42  43  44  45  46  47 0
 3-21G
 ****
 48  49 0
 3-21G
 ****


