%nproc=1
%NoSave
%Mem=1900MB
#P OB98/GEN NMR

erre ene a

0 1
  C      280.314    -184.294      88.455
  O      279.011    -183.928      87.980
  P      278.772    -183.195      86.572
  C      279.538    -184.617      84.560
  O      278.470    -184.293      85.445
  C      279.024    -185.223      83.252
  O      280.106    -185.409      82.315
  C      278.374    -186.592      83.393
  O      277.071    -186.487      83.942
  C      278.425    -187.093      81.951
  O      277.328    -186.564      81.183
  C      279.767    -186.517      81.460
  N      280.827    -187.514      81.433
  C      280.954    -188.264      80.260
  O      280.158    -188.109      79.330
  N      281.967    -189.192      80.174
  C      282.733    -189.402      81.196
  N      283.726    -190.325      81.050
  C      282.580    -188.700      82.482
  C      281.618    -187.778      82.529
  O      279.847    -182.225      86.203
  O      277.367    -182.435      86.735
  H      276.525    -187.005      81.510
  H      277.377    -181.628      86.188
  H      283.222    -188.927      83.321
  H      281.438    -187.208      83.436
  H      279.658    -186.096      80.453
  H      278.367    -188.183      81.879
  H      279.002    -187.236      84.022
  H      278.318    -184.507      82.806
  H      283.806    -190.784      80.154
  H      280.190    -185.340      85.061
  H      284.377    -190.564      81.786
  H      280.113    -183.707      84.358
  P      276.628    -187.456      85.139
  C      276.594    -186.256      87.408
  O      275.871    -186.562      86.229
  O      277.703    -188.346      85.677
  O      275.436    -188.320      84.505
  H      275.437    -189.207      84.912
  H      276.168    -185.358      87.862
  H      277.652    -186.079      87.189
  H      276.506    -187.088      88.115
  H      280.225    -184.767      89.411
  H      280.920    -183.417      88.546
  H      280.769    -184.971      87.763

 3  4  5  6  7  8  9  10  11  12  13  23  27  28  29  30  32 0
 6-311+G(2d,p)
 ****
 34  35 0
 6-311+G(2d,p)
 ****
 1  2  14  15  16  17  18  19  20  21  22  24  25  26 0
 3-21G
 ****
 31  33  36  37  38  39  40  41  42  43  44  45  46 0
 3-21G
 ****


