%nproc=1
%NoSave
%Mem=1900MB
#P OB98/GEN NMR

erre ene a

0 1
  C     -238.815     254.045     167.162
  O     -238.419     252.721     166.882
  H     -239.811     254.207     166.741
  H     -238.118     254.743     166.693
  H     -238.855     254.232     168.238
  P     -237.240     252.072     167.746
  C     -235.821     251.047     165.849
  O     -236.682     250.792     166.951
  C     -235.171     249.765     165.330
  O     -234.277     249.235     166.333
  C     -236.196     248.667     165.028
  O     -236.750     248.723     163.725
  C     -235.367     247.400     165.218
  O     -234.700     247.026     164.002
  C     -234.345     247.803     166.288
  N     -235.216     243.674     169.176
  C     -235.107     243.763     167.800
  N     -235.288     242.613     167.117
  N     -234.859     244.879     167.169
  C     -234.801     245.961     167.978
  C     -234.915     246.001     169.350
  C     -235.115     244.748     170.048
  O     -235.203     244.615     171.264
  N     -234.844     247.287     169.826
  C     -234.775     248.026     168.737
  N     -234.665     247.264     167.597
  O     -238.011     251.400     168.982
  O     -236.195     253.030     168.234
  H     -235.380     246.880     163.316
  H     -237.441     251.420     169.772
  H     -235.381     242.783     169.607
  H     -234.755     249.112     168.718
  H     -233.339     247.443     166.035
  H     -236.001     246.557     165.501
  H     -235.566     241.744     167.545
  H     -236.994     248.667     165.777
  H     -235.403     242.667     166.104
  H     -234.562     249.998     164.448
  H     -235.055     251.737     166.206
  H     -236.369     251.550     165.047
  P     -238.247     249.229     163.490
  C     -239.072     247.038     162.300
  O     -238.860     248.433     162.251
  O     -238.042     250.707     162.915
  O     -239.126     249.214     164.697
  H     -238.161     251.371     163.621
  H     -239.488     246.708     161.371
  H     -239.749     246.808     163.096
  H     -238.140     246.541     162.470

 6  7  8  9  10  11  12  13  14  15  26  29  33  34 0
 6-311+G(2d,p)
 ****
 36  38  39  40  41 0
 6-311+G(2d,p)
 ****
 1  2  3  4  5  16  17  18  19  20  21  22  23  24  25 0
 3-21G
 ****
 27  28  30  31  32  35  37  42  43  44  45  46  47 0
 3-21G
 ****
 48  49 0
 3-21G
 ****


