%nproc=1
%NoSave
%Mem=1900MB
#P OB98/GEN NMR

erre ene a

0 1
  C     -377.176     -15.020     -75.219
  O     -376.000     -14.524     -75.825
  H     -377.257     -14.592     -74.215
  H     -377.139     -16.108     -75.132
  H     -378.055     -14.720     -75.795
  P     -375.591     -15.092     -77.270
  C     -374.154     -16.968     -76.196
  O     -375.278     -16.650     -77.006
  C     -373.364     -18.116     -76.818
  O     -374.220     -19.250     -77.083
  C     -372.715     -17.795     -78.162
  O     -371.572     -16.963     -78.054
  C     -372.368     -19.201     -78.629
  O     -371.213     -19.675     -77.918
  C     -373.636     -19.983     -78.199
  N     -374.612     -20.123     -79.280
  C     -374.385     -21.158     -80.197
  O     -373.408     -21.895     -80.078
  N     -375.254     -21.309     -81.255
  C     -376.248     -20.488     -81.393
  N     -377.049     -20.654     -82.484
  C     -376.535     -19.396     -80.444
  C     -375.686     -19.268     -79.425
  O     -374.523     -14.342     -77.999
  O     -376.973     -15.174     -78.074
  H     -371.083     -20.605     -78.175
  H     -376.772     -15.511     -78.979
  H     -377.372     -18.737     -80.612
  H     -375.818     -18.477     -78.694
  H     -373.375     -20.978     -77.827
  H     -372.142     -19.258     -79.699
  H     -373.446     -17.367     -78.856
  H     -372.619     -18.445     -76.079
  H     -376.798     -21.386     -83.134
  H     -374.517     -17.234     -75.200
  H     -377.659     -19.908     -82.809
  H     -373.494     -16.098     -76.112
  P     -371.386     -15.796     -79.144
  C     -370.255     -17.216     -81.011
  O     -371.404     -16.506     -80.584
  O     -369.855     -15.367     -78.951
  O     -372.327     -14.640     -79.020
  H     -369.779     -14.611     -78.337
  H     -370.430     -17.625     -81.984
  H     -370.049     -18.009     -80.322
  H     -369.418     -16.550     -81.049

 6  7  8  9  10  11  12  13  14  15  16  26  30  31  32  33  35 0
 6-311+G(2d,p)
 ****
 37  38 0
 6-311+G(2d,p)
 ****
 1  2  3  4  5  17  18  19  20  21  22  23  24  25 0
 3-21G
 ****
 27  28  29  34  36  39  40  41  42  43  44  45  46 0
 3-21G
 ****


