%nproc=1
%NoSave
%Mem=1900MB
#P OB98/GEN NMR

erre ene a

0 1
  C      450.814    -124.307    -823.929
  O      449.852    -125.193    -823.357
  P      449.000    -124.653    -822.104
  C      450.186    -125.815    -820.059
  O      449.983    -124.637    -820.833
  C      451.076    -125.515    -818.840
  O      450.408    -124.554    -817.993
  C      451.366    -126.720    -817.939
  O      452.520    -126.420    -817.136
  C      450.135    -126.752    -817.074
  O      450.340    -127.516    -815.886
  C      449.843    -125.254    -816.849
  N      448.401    -124.934    -816.727
  C      447.820    -124.978    -815.466
  O      448.429    -125.248    -814.435
  N      446.467    -124.710    -815.408
  C      445.680    -124.394    -816.474
  O      444.456    -124.262    -816.386
  C      446.369    -124.230    -817.764
  C      447.665    -124.520    -817.826
  O      447.985    -125.849    -821.804
  O      448.302    -123.365    -822.362
  H      451.227    -127.251    -815.538
  H      447.091    -125.616    -822.102
  H      446.023    -124.800    -814.514
  H      445.775    -123.905    -818.616
  H      448.186    -124.416    -818.786
  H      450.333    -124.876    -815.935
  H      449.302    -127.216    -817.618
  H      451.522    -127.666    -818.475
  H      452.017    -125.067    -819.180
  H      450.630    -126.589    -820.685
  H      449.218    -126.198    -819.713
  P      453.906    -127.137    -817.507
  C      453.721    -129.404    -816.302
  O      453.602    -128.724    -817.534
  O      455.091    -126.720    -816.707
  O      454.083    -126.799    -819.065
  H      455.011    -126.913    -819.329
  H      453.042    -130.257    -816.309
  H      453.480    -128.758    -815.450
  H      454.749    -129.774    -816.197
  H      451.303    -124.792    -824.747
  H      451.538    -124.040    -823.188
  H      450.321    -123.425    -824.280

 3  4  5  6  7  8  9  10  11  12  13  23  28  29  30  31  32 0
 6-311+G(2d,p)
 ****
 33  34 0
 6-311+G(2d,p)
 ****
 1  2  14  15  16  17  18  19  20  21  22  24  25  26  27 0
 3-21G
 ****
 35  36  37  38  39  40  41  42  43  44  45 0
 3-21G
 ****


