%nproc=1
%NoSave
%Mem=1900MB
#P OB98/GEN NMR

erre ene a

0 1
  C     -345.995     -91.287     996.352
  O     -346.302     -92.605     995.851
  P     -345.438     -93.891     996.269
  C     -347.075     -95.616     995.250
  O     -345.756     -95.081     995.220
  C     -347.494     -96.165     993.875
  O     -347.395     -95.125     992.872
  C     -346.656     -97.316     993.370
  O     -347.044     -98.529     994.006
  C     -346.930     -97.276     991.868
  O     -348.183     -97.897     991.562
  C     -347.013     -95.759     991.620
  N     -344.103     -94.991     987.477
  C     -345.313     -95.564     987.643
  N     -346.026     -95.730     988.781
  C     -345.365     -95.212     989.832
  C     -344.122     -94.597     989.817
  C     -343.459     -94.491     988.576
  N     -342.227     -93.931     988.413
  N     -343.747     -94.224     991.099
  C     -344.773     -94.566     991.861
  N     -345.770     -95.168     991.134
  O     -345.579     -94.288     997.705
  O     -343.927     -93.501     995.933
  H     -348.135     -98.826     991.832
  H     -343.322     -93.991     996.531
  H     -345.779     -95.946     986.737
  H     -344.832     -94.416     992.930
  H     -347.793     -95.503     990.892
  H     -346.162     -97.778     991.278
  H     -345.589     -97.121     993.551
  H     -348.555     -96.445     993.945
  H     -347.770     -94.822     995.556
  H     -341.814     -93.918     987.494
  H     -341.734     -93.607     989.242
  H     -347.119     -96.411     995.988
  P     -346.233     -99.081     995.279
  C     -347.965     -99.764     997.043
  O     -347.143    -100.196     995.976
  O     -345.709     -98.021     996.208
  O     -345.030     -99.937     994.644
  H     -344.260     -99.890     995.228
  H     -347.362     -99.701     997.953
  H     -348.763    -100.521     997.198
  H     -348.429     -98.808     996.827
  H     -346.691     -90.581     995.949
  H     -345.002     -91.016     996.058
  H     -346.064     -91.286     997.420

 3  4  5  6  7  8  9  10  11  12  22  25  29  30  31  32 0
 6-311+G(2d,p)
 ****
 33  36  37 0
 6-311+G(2d,p)
 ****
 1  2  13  14  15  16  17  18  19  20  21  23  24  26 0
 3-21G
 ****
 27  28  34  35  38  39  40  41  42  43  44  45  46  47  48 0
 3-21G
 ****


