%nproc=1
%NoSave
%Mem=1900MB
#P OB98/GEN NMR

erre ene a

0 1
  C     -264.497      -9.636     -51.565
  O     -265.617     -10.261     -50.961
  P     -267.080      -9.705     -51.298
  C     -268.606      -7.776     -50.452
  O     -267.357      -8.443     -50.346
  C     -268.451      -6.297     -50.094
  O     -267.414      -5.699     -50.938
  C     -269.729      -5.464     -50.289
  O     -269.742      -4.444     -49.274
  C     -269.502      -4.825     -51.647
  O     -270.313      -3.680     -51.867
  C     -268.002      -4.539     -51.562
  N     -267.396      -4.267     -52.871
  C     -266.087      -3.807     -52.887
  O     -265.414      -3.614     -51.870
  N     -265.576      -3.498     -54.118
  C     -266.253      -3.526     -55.300
  O     -265.775      -3.131     -56.354
  C     -267.644      -4.019     -55.226
  C     -268.138      -4.363     -54.034
  O     -268.045     -10.844     -50.715
  O     -267.330      -9.452     -52.751
  H     -271.190      -3.997     -52.151
  H     -268.361     -11.424     -51.433
  H     -264.621      -3.177     -54.147
  H     -268.204      -4.073     -56.146
  H     -269.163      -4.718     -53.942
  H     -267.814      -3.686     -50.887
  H     -269.729      -5.553     -52.436
  H     -270.648      -6.056     -50.245
  H     -268.103      -6.221     -49.051
  H     -269.316      -8.237     -49.767
  H     -268.993      -7.881     -51.476
  P     -270.967      -4.438     -48.232
  C     -273.476      -3.723     -48.373
  O     -272.264      -3.976     -49.051
  O     -270.594      -3.157     -47.344
  O     -271.089      -5.704     -47.442
  H     -270.292      -2.399     -47.879
  H     -273.304      -3.297     -47.381
  H     -274.036      -4.653     -48.271
  H     -274.073      -3.017     -48.965
  H     -263.600     -10.121     -51.240
  H     -264.468      -8.605     -51.281
  H     -264.578      -9.711     -52.629

 3  4  5  6  7  8  9  10  11  12  13  23  28  29  30  31  32 0
 6-311+G(2d,p)
 ****
 33  34 0
 6-311+G(2d,p)
 ****
 1  2  14  15  16  17  18  19  20  21  22  24  25  26 0
 3-21G
 ****
 27  35  36  37  38  39  40  41  42  43  44  45 0
 3-21G
 ****


