%nproc=1
%NoSave
%Mem=1900MB
#P OB98/GEN NMR

erre ene a

0 1
  C      -49.758     177.285    -482.246
  O      -48.546     177.590    -482.913
  H      -50.083     176.289    -482.550
  H      -50.530     178.010    -482.523
  H      -49.604     177.296    -481.163
  P      -47.886     179.014    -482.583
  C      -46.089     177.931    -481.062
  O      -47.203     178.808    -481.145
  C      -45.070     178.450    -480.049
  O      -44.356     179.583    -480.580
  C      -45.685     178.929    -478.737
  O      -45.959     177.834    -477.878
  C      -44.561     179.800    -478.198
  O      -43.547     178.969    -477.595
  C      -44.004     180.461    -479.475
  N      -42.715     185.342    -480.387
  C      -41.984     184.285    -479.985
  N      -42.401     183.026    -479.721
  C      -43.725     182.911    -479.912
  C      -44.603     183.909    -480.321
  C      -44.045     185.172    -480.577
  N      -44.797     186.252    -480.994
  N      -45.888     183.422    -480.408
  C      -45.785     182.139    -480.104
  N      -44.501     181.792    -479.764
  O      -48.784     180.192    -482.730
  O      -46.618     178.998    -483.565
  H      -43.418     178.198    -478.172
  H      -46.225     178.107    -483.600
  H      -40.919     184.465    -479.858
  H      -46.595     181.428    -480.138
  H      -42.911     180.531    -479.450
  H      -44.906     180.492    -477.428
  H      -46.568     179.550    -478.910
  H      -44.335     177.655    -479.871
  H      -45.613     177.829    -482.046
  H      -44.353     187.156    -480.987
  H      -45.800     186.152    -481.016
  H      -46.460     176.954    -480.760
  P      -46.718     178.060    -476.484
  C      -48.837     177.029    -477.517
  O      -48.286     178.145    -476.823
  O      -46.204     179.188    -475.658
  O      -46.589     176.658    -475.722
  H      -46.448     176.803    -474.768
  H      -49.880     177.195    -477.688
  H      -48.708     176.144    -476.929
  H      -48.337     176.910    -478.455

 6  7  8  9  10  11  12  13  14  15  25  28  32  33  34  35 0
 6-311+G(2d,p)
 ****
 36  39  40 0
 6-311+G(2d,p)
 ****
 1  2  3  4  5  16  17  18  19  20  21  22  23  24 0
 3-21G
 ****
 26  27  29  30  31  37  38  41  42  43  44  45  46  47 0
 3-21G
 ****
 48 0
 3-21G
 ****


