%nproc=1
%NoSave
%Mem=1900MB
#P OB98/GEN NMR

erre ene a

0 1
  C      318.079     261.735    -237.731
  O      318.995     262.306    -236.817
  H      317.099     261.678    -237.249
  H      318.394     260.722    -237.997
  H      317.992     262.350    -238.629
  P      320.495     262.595    -237.307
  C      319.954     264.852    -238.415
  O      320.658     264.192    -237.372
  C      320.832     265.924    -239.063
  O      320.233     266.319    -240.321
  C      321.001     267.181    -238.204
  O      322.337     267.661    -238.361
  C      320.030     268.165    -238.829
  O      320.416     269.521    -238.610
  C      320.060     267.750    -240.298
  N      317.780     271.489    -242.817
  C      319.066     271.404    -242.318
  N      319.859     272.483    -242.492
  N      319.534     270.352    -241.699
  C      318.637     269.337    -241.607
  C      317.339     269.299    -242.057
  C      316.828     270.477    -242.731
  O      315.696     270.617    -243.181
  N      316.740     268.104    -241.752
  C      317.675     267.422    -241.114
  N      318.840     268.132    -240.993
  O      320.913     261.880    -238.551
  O      321.398     262.186    -236.053
  H      321.283     269.648    -239.051
  H      321.788     261.303    -236.183
  H      317.471     272.325    -243.279
  H      317.560     266.421    -240.719
  H      320.895     268.210    -240.844
  H      319.030     268.019    -238.399
  H      319.573     273.322    -242.974
  H      320.790     267.007    -237.144
  H      320.813     272.434    -242.154
  H      321.806     265.476    -239.302
  H      319.061     265.318    -237.986
  H      319.644     264.116    -239.166
  P      323.130     268.175    -237.065
  C      324.835     266.411    -236.268
  O      324.608     267.545    -237.098
  O      322.407     268.032    -235.767
  O      323.407     269.720    -237.409
  H      323.436     270.227    -236.574
  H      325.849     266.086    -236.377
  H      324.174     265.620    -236.556
  H      324.653     266.674    -235.247

 6  7  8  9  10  11  12  13  14  15  26  29  33  34 0
 6-311+G(2d,p)
 ****
 36  38  39  40  41 0
 6-311+G(2d,p)
 ****
 1  2  3  4  5  16  17  18  19  20  21  22  23  24  25 0
 3-21G
 ****
 27  28  30  31  32  35  37  42  43  44  45  46  47 0
 3-21G
 ****
 48  49 0
 3-21G
 ****


