%nproc=1
%NoSave
%Mem=1900MB
#P OB98/GEN NMR

erre ene a

0 1
  C      512.859     263.291     556.526
  O      511.479     263.200     556.247
  H      513.346     262.380     556.170
  H      513.014     263.375     557.606
  H      513.308     264.148     556.019
  P      510.578     264.518     556.364
  C      509.811     264.117     558.799
  O      509.423     264.204     557.434
  C      508.673     263.542     559.652
  O      507.506     264.396     559.520
  C      508.260     262.149     559.168
  O      507.718     261.353     560.219
  C      507.154     262.454     558.166
  O      506.269     261.355     557.958
  C      506.491     263.668     558.808
  N      502.098     265.113     556.661
  C      502.359     264.028     557.476
  N      501.306     263.226     557.760
  N      503.540     263.744     557.951
  C      504.511     264.592     557.529
  C      504.385     265.684     556.706
  C      503.062     266.010     556.213
  O      502.781     266.943     555.470
  N      505.595     266.298     556.493
  C      506.451     265.571     557.181
  N      505.842     264.541     557.849
  O      509.768     264.545     554.983
  O      511.328     265.797     556.591
  H      505.601     261.638     557.308
  H      509.463     265.450     554.788
  H      501.164     265.301     556.348
  H      507.516     265.763     557.241
  H      505.736     263.354     559.539
  H      507.622     262.679     557.202
  H      500.433     263.298     557.255
  H      509.074     261.605     558.698
  H      501.529     262.280     558.084
  H      508.954     263.551     560.710
  H      510.060     265.129     559.123
  H      510.714     263.510     558.899
  P      508.727     260.711     561.287
  C      508.785     258.279     560.235
  O      508.529     259.125     561.333
  O      508.156     261.207     562.694
  O      510.161     261.095     561.094
  H      508.800     261.796     563.131
  H      508.579     257.266     560.510
  H      509.812     258.369     559.947
  H      508.158     258.560     559.414

 6  7  8  9  10  11  12  13  14  15  26  29  33  34 0
 6-311+G(2d,p)
 ****
 36  38  39  40  41 0
 6-311+G(2d,p)
 ****
 1  2  3  4  5  16  17  18  19  20  21  22  23  24  25 0
 3-21G
 ****
 27  28  30  31  32  35  37  42  43  44  45  46  47 0
 3-21G
 ****
 48  49 0
 3-21G
 ****


