%nproc=1
%NoSave
%Mem=1900MB
#P OB98/GEN NMR

erre ene a

0 1
  C     -105.548     435.793    -280.439
  O     -106.606     436.646    -280.826
  H     -105.975     434.901    -279.974
  H     -104.911     436.296    -279.707
  H     -104.956     435.489    -281.306
  P     -106.271     437.971    -281.663
  C     -108.481     438.147    -282.987
  O     -107.664     438.708    -281.967
  C     -109.506     437.179    -282.387
  O     -110.372     437.924    -281.489
  C     -110.391     436.497    -283.436
  O     -110.650     435.154    -283.026
  C     -111.676     437.303    -283.386
  O     -112.809     436.544    -283.809
  C     -111.734     437.718    -281.915
  N     -116.319     439.773    -282.452
  C     -115.896     438.475    -282.652
  N     -116.826     437.593    -283.079
  N     -114.666     438.074    -282.454
  C     -113.847     439.058    -282.010
  C     -114.146     440.381    -281.771
  C     -115.505     440.813    -282.011
  O     -115.933     441.953    -281.866
  N     -113.036     441.070    -281.342
  C     -112.074     440.167    -281.324
  N     -112.510     438.935    -281.732
  O     -105.404     437.754    -282.863
  O     -105.569     438.941    -280.604
  H     -112.894     435.791    -283.181
  H     -104.607     438.986    -280.753
  H     -117.273     440.030    -282.626
  H     -111.047     440.352    -281.031
  H     -112.186     436.950    -281.282
  H     -111.590     438.180    -284.039
  H     -117.796     437.826    -283.229
  H     -109.940     436.502    -284.429
  H     -116.549     436.628    -283.205
  H     -108.971     436.437    -281.780
  H     -107.833     437.608    -283.685
  H     -108.989     438.951    -283.527
  P     -109.634     433.996    -283.482
  C     -109.716     432.023    -281.835
  O     -110.238     432.574    -283.035
  O     -108.204     434.213    -283.110
  O     -109.816     433.970    -285.076
  H     -108.957     433.756    -285.489
  H     -110.188     431.083    -281.639
  H     -109.905     432.693    -281.023
  H     -108.661     431.877    -281.939

 6  7  8  9  10  11  12  13  14  15  26  29  33  34 0
 6-311+G(2d,p)
 ****
 36  38  39  40  41 0
 6-311+G(2d,p)
 ****
 1  2  3  4  5  16  17  18  19  20  21  22  23  24  25 0
 3-21G
 ****
 27  28  30  31  32  35  37  42  43  44  45  46  47 0
 3-21G
 ****
 48  49 0
 3-21G
 ****


