%nproc=1
%NoSave
%Mem=1900MB
#P OB98/GEN NMR

erre ene a

0 1
  C      -19.601      -0.292     -55.221
  O      -20.025      -0.615     -56.530
  H      -20.468      -0.336     -54.556
  H      -19.198       0.722     -55.200
  H      -18.852      -1.004     -54.868
  P      -18.927      -0.765     -57.686
  C      -17.544       0.845     -59.153
  O      -18.650       0.705     -58.273
  C      -16.974       2.266     -59.084
  O      -18.008       3.200     -59.486
  C      -16.495       2.670     -57.688
  O      -15.324       3.476     -57.809
  C      -17.641       3.504     -57.150
  O      -17.212       4.441     -56.164
  C      -18.178       4.157     -58.423
  N      -21.396       8.049     -58.266
  C      -20.037       8.026     -58.507
  N      -19.440       9.218     -58.720
  N      -19.323       6.931     -58.533
  C      -20.056       5.810     -58.325
  C      -21.403       5.700     -58.076
  C      -22.177       6.923     -58.028
  O      -23.380       7.006     -57.804
  N      -21.772       4.390     -57.898
  C      -20.649       3.711     -58.038
  N      -19.578       4.527     -58.287
  O      -19.236      -1.800     -58.720
  O      -17.574      -1.104     -56.905
  H      -18.020       4.876     -55.813
  H      -17.342      -2.045     -57.001
  H      -21.895       8.920     -58.245
  H      -20.556       2.636     -57.966
  H      -17.631       5.070     -58.686
  H      -18.395       2.850     -56.696
  H      -19.932      10.098     -58.738
  H      -16.282       1.806     -57.058
  H      -18.449       9.227     -58.930
  H      -16.164       2.351     -59.818
  H      -17.887       0.636     -60.171
  H      -16.772       0.117     -58.883
  P      -14.093       3.218     -56.813
  C      -12.942       4.384     -54.834
  O      -13.942       4.484     -55.838
  O      -12.827       2.769     -57.463
  O      -14.665       2.086     -55.830
  H      -13.932       1.490     -55.577
  H      -12.933       5.280     -54.249
  H      -11.986       4.250     -55.295
  H      -13.154       3.547     -54.202

 6  7  8  9  10  11  12  13  14  15  26  29  33  34 0
 6-311+G(2d,p)
 ****
 36  38  39  40  41 0
 6-311+G(2d,p)
 ****
 1  2  3  4  5  16  17  18  19  20  21  22  23  24  25 0
 3-21G
 ****
 27  28  30  31  32  35  37  42  43  44  45  46  47 0
 3-21G
 ****
 48  49 0
 3-21G
 ****


