%nproc=1
%NoSave
%Mem=1900MB
#P OB98/GEN NMR

erre ene a

0 1
  C      -78.938      -3.664    -207.630
  O      -79.156      -5.056    -207.881
  P      -80.417      -5.747    -207.163
  C      -81.805      -5.951    -209.373
  O      -81.153      -6.613    -208.302
  C      -82.563      -6.951    -210.257
  O      -81.611      -7.699    -211.079
  C      -83.401      -7.973    -209.481
  O      -84.600      -8.198    -210.250
  C      -82.530      -9.215    -209.483
  O      -83.289     -10.398    -209.270
  C      -81.887      -9.098    -210.873
  N      -80.675      -9.913    -210.998
  C      -80.644     -10.845    -212.035
  O      -81.606     -11.056    -212.773
  N      -79.483     -11.556    -212.161
  C      -78.405     -11.495    -211.321
  O      -77.388     -12.156    -211.482
  C      -78.543     -10.575    -210.172
  C      -79.654      -9.837    -210.070
  O      -81.379      -4.490    -206.931
  O      -80.045      -6.498    -205.924
  H      -81.350      -3.843    -207.663
  H      -83.542     -10.449    -208.321
  H      -79.428     -12.217    -212.924
  H      -77.732     -10.541    -209.453
  H      -79.795      -9.169    -209.227
  H      -82.593      -9.416    -211.647
  H      -81.770      -9.143    -208.695
  H      -83.676      -7.628    -208.474
  H      -83.205      -6.383    -210.943
  H      -81.065      -5.427    -209.990
  H      -82.486      -5.186    -208.969
  P      -86.022      -7.938    -209.537
  C      -86.791      -5.537    -210.266
  O      -86.845      -6.933    -210.482
  O      -85.557      -6.995    -208.321
  O      -86.733      -9.170    -209.074
  H      -84.962      -6.277    -208.601
  H      -87.209      -5.032    -211.140
  H      -85.758      -5.199    -210.130
  H      -87.382      -5.274    -209.381
  H      -78.072      -3.336    -208.166
  H      -78.788      -3.510    -206.582
  H      -79.791      -3.105    -207.954

 3  4  5  6  7  8  9  10  11  12  13  24  28  29  30  31  32 0
 6-311+G(2d,p)
 ****
 33  34 0
 6-311+G(2d,p)
 ****
 1  2  14  15  16  17  18  19  20  21  22  23  25  26  27 0
 3-21G
 ****
 35  36  37  38  39  40  41  42  43  44  45 0
 3-21G
 ****


