%nproc=1
%NoSave
%Mem=1900MB
#P OB98/GEN NMR

erre ene a

0 1
  C      193.242      43.655      56.696
  O      193.026      44.153      55.387
  P      192.206      45.518      55.221
  C      190.632      44.998      53.223
  O      191.800      45.667      53.675
  C      190.719      44.704      51.725
  O      190.649      45.949      50.980
  C      192.015      44.000      51.312
  O      191.744      43.109      50.220
  C      192.873      45.126      50.774
  O      193.869      44.642      49.874
  C      191.809      46.012      50.127
  N      195.124      49.036      47.804
  C      194.786      47.728      47.524
  N      195.491      47.120      46.546
  N      193.837      47.076      48.142
  C      193.221      47.809      49.102
  C      193.457      49.118      49.460
  C      194.518      49.823      48.775
  O      194.885      50.972      48.995
  N      192.605      49.527      50.453
  C      191.883      48.460      50.728
  N      192.243      47.383      49.960
  O      193.333      46.639      55.423
  O      191.093      45.700      56.197
  H      194.445      45.400      49.656
  H      193.237      47.050      56.302
  H      195.871      49.492      47.306
  H      191.110      48.405      51.484
  H      191.514      45.631      49.141
  H      193.378      45.640      51.599
  H      196.278      47.545      46.078
  H      192.508      43.446      52.119
  H      195.293      46.148      46.352
  H      189.846      44.108      51.434
  H      189.763      45.629      53.413
  H      190.505      44.065      53.783
  P      192.124      41.567      50.460
  C      194.408      41.601      49.213
  O      193.068      41.153      49.236
  O      190.752      40.799      50.161
  O      192.656      41.273      51.822
  H      190.729      39.950      50.639
  H      195.072      40.734      49.260
  H      194.636      42.269      50.049
  H      194.587      42.136      48.277
  H      193.800      42.744      56.643
  H      192.299      43.469      57.167
  H      193.789      44.376      57.266

 3  4  5  6  7  8  9  10  11  12  23  26  30  31 0
 6-311+G(2d,p)
 ****
 33  35  36  37  38 0
 6-311+G(2d,p)
 ****
 1  2  13  14  15  16  17  18  19  20  21  22  24  25 0
 3-21G
 ****
 27  28  29  32  34  39  40  41  42  43  44  45  46  47  48  49 0
 3-21G
 ****


