%nproc=1
%NoSave
%Mem=1900MB
#P OB98/GEN NMR

erre ene a

0 1
  C     -570.111    -313.017    -498.122
  O     -569.438    -314.254    -497.992
  H     -570.617    -312.995    -499.092
  H     -569.401    -312.189    -498.076
  H     -570.864    -312.903    -497.331
  P     -568.766    -314.632    -496.586
  C     -568.746    -316.999    -497.608
  O     -568.082    -316.067    -496.766
  C     -567.732    -317.906    -498.318
  O     -566.986    -317.106    -499.285
  C     -566.694    -318.563    -497.371
  O     -566.330    -319.818    -497.953
  C     -565.559    -317.563    -497.451
  O     -564.364    -318.037    -496.892
  C     -565.578    -317.276    -498.968
  N     -564.801    -316.115    -499.395
  C     -563.817    -316.312    -500.356
  O     -563.559    -317.412    -500.876
  N     -563.105    -315.201    -500.731
  C     -563.302    -313.938    -500.256
  O     -562.656    -312.967    -500.648
  C     -564.360    -313.788    -499.231
  C     -565.055    -314.862    -498.865
  O     -569.652    -314.491    -495.391
  O     -567.504    -313.640    -496.503
  H     -567.710    -312.899    -495.910
  H     -564.522    -318.287    -495.958
  H     -562.394    -315.336    -501.421
  H     -564.536    -312.797    -498.828
  H     -565.843    -314.786    -498.123
  H     -565.239    -318.161    -499.512
  H     -565.823    -316.655    -496.885
  H     -567.082    -318.728    -496.362
  H     -568.280    -318.668    -498.890
  H     -569.323    -316.442    -498.359
  H     -569.436    -317.609    -497.013
  P     -566.861    -321.229    -497.427
  C     -567.243    -321.972    -499.877
  O     -566.693    -322.315    -498.609
  O     -568.242    -321.188    -496.846
  O     -565.782    -321.696    -496.319
  H     -566.222    -322.298    -495.681
  H     -567.067    -322.769    -500.569
  H     -566.779    -321.078    -500.237
  H     -568.296    -321.812    -499.777

 6  7  8  9  10  11  12  13  14  15  16  27  31  32  33  34  35 0
 6-311+G(2d,p)
 ****
 36  37 0
 6-311+G(2d,p)
 ****
 1  2  3  4  5  17  18  19  20  21  22  23  24  25 0
 3-21G
 ****
 26  28  29  30  38  39  40  41  42  43  44  45 0
 3-21G
 ****


