%nproc=1
%NoSave
%Mem=1900MB
#P OB98/GEN NMR

erre ene a

0 1
  C        2.455       3.064     -41.933
  O        1.926       1.859     -42.464
  P        0.344       1.598     -42.507
  C        0.470      -0.550     -41.101
  O        0.019       0.798     -41.156
  C        0.349      -1.086     -39.677
  O        1.033      -0.172     -38.786
  C       -1.071      -1.196     -39.124
  O       -1.752      -2.391     -39.480
  C       -0.791      -1.206     -37.627
  O       -0.350      -2.515     -37.222
  C        0.355      -0.199     -37.505
  N       -1.251       2.860     -33.733
  C       -0.824       1.578     -33.738
  N       -0.431       0.826     -34.788
  C       -0.466       1.544     -35.921
  C       -0.872       2.860     -36.073
  C       -1.279       3.531     -34.908
  N       -1.692       4.845     -34.903
  N       -0.788       3.247     -37.397
  C       -0.327       2.186     -38.025
  N       -0.109       1.136     -37.177
  O       -0.145       0.972     -43.766
  O       -0.301       3.036     -42.237
  H       -1.084      -3.132     -37.408
  H       -1.241       3.034     -42.503
  H       -0.800       1.086     -32.769
  H       -0.140       2.131     -39.088
  H        1.095      -0.493     -36.752
  H       -1.674      -0.969     -37.027
  H       -1.667      -0.311     -39.373
  H        0.863      -2.053     -39.627
  H        1.522      -0.573     -41.406
  H       -1.840       5.281     -34.006
  H       -1.559       5.389     -35.744
  H       -0.105      -1.159     -41.802
  P       -3.244      -2.581     -38.910
  C       -2.822      -5.048     -38.146
  O       -3.134      -3.720     -37.787
  O       -4.282      -2.806     -39.952
  O       -3.470      -1.244     -38.059
  H       -2.919      -1.160     -37.265
  H       -2.637      -5.624     -37.235
  H       -1.925      -5.084     -38.768
  H       -3.662      -5.499     -38.682
  H        3.523       3.043     -41.995
  H        2.159       3.163     -40.909
  H        2.082       3.895     -42.494

 3  4  5  6  7  8  9  10  11  12  22  25  29  30  31  32 0
 6-311+G(2d,p)
 ****
 33  36  37 0
 6-311+G(2d,p)
 ****
 1  2  13  14  15  16  17  18  19  20  21  23  24  26 0
 3-21G
 ****
 27  28  34  35  38  39  40  41  42  43  44  45  46  47  48 0
 3-21G
 ****


