%nproc=1
%NoSave
%Mem=1900MB
#P OB98/GEN NMR

erre ene a

0 1
  C      418.077     106.776     451.796
  O      419.117     105.889     452.158
  H      417.144     106.423     452.239
  H      417.965     106.807     450.710
  H      418.294     107.779     452.177
  P      420.561     106.174     451.509
  C      419.689     104.678     449.562
  O      420.334     105.883     449.944
  C      420.557     103.918     448.556
  O      420.617     104.626     447.297
  C      422.013     103.738     448.984
  O      422.192     102.718     449.946
  C      422.634     103.382     447.649
  O      422.293     102.023     447.306
  C      421.921     104.388     446.713
  N      422.661     105.646     446.568
  C      423.442     105.783     445.415
  O      423.506     104.881     444.584
  N      424.175     106.936     445.247
  C      424.116     107.877     446.137
  N      424.862     108.992     445.920
  C      423.292     107.782     447.357
  C      422.600     106.656     447.506
  O      421.432     104.917     451.979
  O      421.167     107.501     451.820
  H      421.341     101.916     447.498
  H      422.304     104.917     451.510
  H      423.283     108.586     448.076
  H      421.971     106.512     448.375
  H      421.767     103.958     445.719
  H      423.720     103.445     447.646
  H      422.446     104.682     449.334
  H      420.076     102.950     448.363
  H      425.465     109.004     445.103
  H      418.724     104.931     449.106
  H      425.001     109.711     446.620
  H      419.518     104.043     450.438
  P      423.652     102.567     450.599
  C      423.991     100.271     449.416
  O      424.488     101.585     449.652
  O      423.378     101.677     451.903
  O      424.325     103.861     450.932
  H      423.976     101.935     452.631
  H      424.662      99.747     448.767
  H      423.026     100.332     448.958
  H      423.912      99.747     450.346

 6  7  8  9  10  11  12  13  14  15  16  26  30  31  32  33  35 0
 6-311+G(2d,p)
 ****
 37  38 0
 6-311+G(2d,p)
 ****
 1  2  3  4  5  17  18  19  20  21  22  23  24  25 0
 3-21G
 ****
 27  28  29  34  36  39  40  41  42  43  44  45  46 0
 3-21G
 ****


