%nproc=1
%NoSave
%Mem=1900MB
#P OB98/GEN NMR

erre ene a

0 1
  C       14.313     331.558     -53.057
  O       15.552     330.877     -53.035
  H       13.998     331.675     -54.097
  H       14.412     332.550     -52.608
  H       13.551     330.982     -52.525
  P       16.252     330.615     -51.619
  C       17.632     332.030     -49.956
  O       16.904     332.014     -51.177
  C       17.695     333.449     -49.397
  O       16.367     333.950     -49.147
  C       18.456     333.570     -48.078
  O       19.853     333.624     -48.309
  C       17.900     334.884     -47.557
  O       18.516     335.983     -48.259
  C       16.415     334.779     -47.952
  N       14.091     335.478     -43.494
  C       15.006     336.277     -44.151
  N       15.376     337.410     -43.516
  N       15.521     335.987     -45.318
  C       15.111     334.793     -45.801
  C       14.223     333.906     -45.238
  C       13.611     334.268     -43.976
  O       12.777     333.599     -43.374
  N       14.126     332.753     -45.975
  C       14.913     332.967     -47.013
  N       15.543     334.189     -46.950
  O       17.202     329.458     -51.559
  O       15.031     330.442     -50.600
  H       19.474     335.809     -48.281
  H       14.777     329.506     -50.510
  H       13.735     335.749     -42.593
  H       15.060     332.278     -47.836
  H       15.987     335.753     -48.210
  H       18.091     335.035     -46.493
  H       15.133     337.612     -42.556
  H       18.183     332.770     -47.381
  H       16.091     337.979     -43.955
  H       18.141     334.093     -50.167
  H       18.639     331.658     -50.169
  H       17.163     331.366     -49.222
  P       20.884     334.009     -47.137
  C       22.066     336.239     -46.571
  O       20.915     335.613     -47.110
  O       22.222     333.363     -47.243
  O       20.097     333.669     -45.791
  H       20.183     332.721     -45.522
  H       21.949     337.302     -46.617
  H       22.927     335.950     -47.137
  H       22.192     335.938     -45.552

 6  7  8  9  10  11  12  13  14  15  26  29  33  34 0
 6-311+G(2d,p)
 ****
 36  38  39  40  41 0
 6-311+G(2d,p)
 ****
 1  2  3  4  5  16  17  18  19  20  21  22  23  24  25 0
 3-21G
 ****
 27  28  30  31  32  35  37  42  43  44  45  46  47 0
 3-21G
 ****
 48  49 0
 3-21G
 ****


