%nproc=1
%NoSave
%Mem=1900MB
#P OB98/GEN NMR

erre ene a

0 1
  C       -2.225       7.420      10.880
  O       -1.145       6.805      10.203
  P       -1.404       6.194       8.746
  C       -1.269       3.695       9.452
  O       -2.070       4.747       8.937
  C       -1.710       2.353       8.863
  O       -0.788       1.310       9.300
  C       -3.122       1.920       9.283
  O       -3.698       1.202       8.183
  C       -2.844       0.963      10.427
  O       -3.930       0.092      10.703
  C       -1.586       0.268       9.897
  N       -0.850      -0.446      10.939
  C       -1.202      -1.770      11.176
  O       -2.089      -2.366      10.566
  N       -0.536      -2.390      12.198
  C        0.360      -1.806      13.045
  O        0.835      -2.384      14.015
  C        0.694      -0.405      12.746
  C        0.085       0.201      11.724
  O        0.070       5.867       8.218
  O       -2.144       7.095       7.815
  H       -3.601      -0.606      11.298
  H        0.376       6.565       7.609
  H       -0.770      -3.354      12.377
  H        1.417       0.084      13.386
  H        0.297       1.240      11.494
  H       -1.851      -0.432       9.095
  H       -2.632       1.536      11.337
  H       -3.767       2.754       9.575
  H       -1.638       2.411       7.770
  H       -1.375       3.663      10.537
  H       -0.216       3.890       9.223
  P       -4.919       1.887       7.396
  C       -6.798       0.847       8.886
  O       -6.129       2.006       8.437
  O       -5.359       0.689       6.428
  O       -4.540       3.135       6.669
  H       -5.378      -0.170       6.881
  H       -6.116      -0.004       8.969
  H       -7.600       0.599       8.187
  H       -7.233       1.047       9.868
  H       -1.893       7.775      11.833
  H       -3.011       6.707      11.019
  H       -2.588       8.243      10.300

 3  4  5  6  7  8  9  10  11  12  13  23  28  29  30  31  32 0
 6-311+G(2d,p)
 ****
 33  34 0
 6-311+G(2d,p)
 ****
 1  2  14  15  16  17  18  19  20  21  22  24  25  26 0
 3-21G
 ****
 27  35  36  37  38  39  40  41  42  43  44  45 0
 3-21G
 ****


