%nproc=1
%NoSave
%Mem=1900MB
#P OB98/GEN NMR

erre ene a

0 1
  C      511.252    -205.757    -459.647
  O      512.181    -205.682    -458.586
  H      510.369    -206.302    -459.298
  H      511.683    -206.298    -460.494
  H      510.941    -204.756    -459.965
  P      513.507    -204.800    -458.782
  C      515.166    -206.715    -458.280
  O      514.668    -205.800    -459.250
  C      516.386    -207.444    -458.838
  O      516.039    -208.139    -460.054
  C      517.539    -206.522    -459.204
  O      518.239    -206.091    -458.049
  C      518.342    -207.418    -460.130
  O      519.161    -208.337    -459.381
  C      517.226    -208.172    -460.882
  N      516.954    -207.613    -462.212
  C      516.847    -208.523    -463.252
  O      516.994    -209.738    -463.108
  N      516.590    -207.986    -464.491
  C      516.546    -206.655    -464.792
  O      516.402    -206.224    -465.936
  C      516.692    -205.735    -463.654
  C      516.886    -206.248    -462.433
  O      513.865    -203.908    -457.639
  O      513.203    -203.956    -460.108
  H      519.807    -207.795    -458.893
  H      512.993    -203.034    -459.868
  H      516.521    -208.628    -465.261
  H      516.650    -204.676    -463.850
  H      517.000    -205.592    -461.584
  H      517.491    -209.229    -461.007
  H      519.010    -206.862    -460.781
  H      517.172    -205.667    -459.779
  H      516.704    -208.192    -458.098
  H      514.380    -207.442    -458.047
  H      515.423    -206.164    -457.370
  P      519.295    -204.887    -458.156
  C      521.104    -206.505    -457.303
  O      520.756    -205.533    -458.286
  O      519.160    -203.827    -457.122
  O      519.034    -204.289    -459.620
  H      518.767    -203.356    -459.544
  H      522.095    -206.863    -457.490
  H      520.415    -207.322    -457.350
  H      521.064    -206.060    -456.331

 6  7  8  9  10  11  12  13  14  15  16  26  31  32  33  34  35 0
 6-311+G(2d,p)
 ****
 36  37 0
 6-311+G(2d,p)
 ****
 1  2  3  4  5  17  18  19  20  21  22  23  24  25 0
 3-21G
 ****
 27  28  29  30  38  39  40  41  42  43  44  45 0
 3-21G
 ****


