%nproc=1
%NoSave
%Mem=1900MB
#P OB98/GEN NMR

erre ene a

0 1
  C     -893.100     203.461    -890.540
  O     -893.300     204.381    -891.600
  H     -893.960     202.777    -890.500
  H     -893.050     203.986    -889.590
  H     -892.200     202.872    -890.680
  P     -892.090     205.370    -891.930
  C     -892.050     205.784    -894.490
  O     -891.570     205.001    -893.400
  C     -893.150     205.017    -895.250
  O     -894.290     204.789    -894.360
  C     -893.680     205.781    -896.480
  O     -893.940     204.829    -897.530
  C     -895.000     206.368    -896.000
  O     -895.910     206.615    -897.060
  C     -895.450     205.296    -894.990
  N     -896.390     205.864    -894.000
  C     -897.650     206.232    -894.480
  O     -897.940     206.071    -895.670
  N     -898.540     206.801    -893.610
  C     -898.150     207.084    -892.400
  N     -899.090     207.688    -891.600
  C     -896.810     206.788    -891.870
  C     -895.990     206.187    -892.710
  O     -890.900     204.858    -890.980
  O     -892.370     206.832    -891.720
  H     -895.970     205.792    -897.600
  H     -890.320     205.581    -890.720
  H     -896.550     207.065    -890.850
  H     -894.970     205.932    -892.420
  H     -895.940     204.465    -895.500
  H     -894.800     207.316    -895.500
  H     -892.980     206.542    -896.840
  H     -892.760     204.035    -895.540
  H     -900.000     207.890    -891.990
  H     -891.230     205.973    -895.170
  H     -898.890     207.989    -890.640
  H     -892.440     206.737    -894.120
  P     -892.750     204.569    -898.580
  C     -892.690     201.947    -898.720
  O     -892.070     203.145    -898.210
  O     -891.630     205.638    -898.140
  O     -893.160     204.748    -900.000
  H     -891.580     206.351    -898.820
  H     -892.134     201.092    -898.396
  H     -892.703     201.980    -899.789
  H     -893.693     201.880    -898.353

 6  7  8  9  10  11  12  13  14  15  16  26  30  31  32  33  35 0
 6-311+G(2d,p)
 ****
 37  38 0
 6-311+G(2d,p)
 ****
 1  2  3  4  5  17  18  19  20  21  22  23  24  25 0
 3-21G
 ****
 27  28  29  34  36  39  40  41  42  43  44  45  46 0
 3-21G
 ****


