%nproc=1
%NoSave
%Mem=1900MB
#P OB98/GEN NMR

erre ene a

0 1
  C       24.996     237.871    -204.600
  O       23.890     236.998    -204.508
  H       24.783     238.772    -204.018
  H       25.170     238.159    -205.641
  H       25.889     237.389    -204.193
  P       23.952     235.653    -205.380
  C       22.486     235.364    -207.509
  O       23.561     236.053    -206.884
  C       21.182     236.119    -207.255
  O       21.352     237.516    -207.590
  C       20.012     235.639    -208.103
  O       19.424     234.451    -207.602
  C       19.079     236.833    -208.010
  O       18.276     236.787    -206.821
  C       20.057     238.021    -207.975
  N       20.098     238.725    -209.256
  C       19.281     239.849    -209.353
  O       18.567     240.248    -208.436
  N       19.288     240.487    -210.565
  C       19.972     240.088    -211.674
  O       19.887     240.675    -212.749
  C       20.802     238.883    -211.521
  C       20.825     238.264    -210.335
  O       22.684     234.825    -204.863
  O       25.222     234.876    -205.248
  H       22.981     234.085    -204.301
  H       17.999     235.856    -206.718
  H       18.703     241.304    -210.655
  H       21.359     238.538    -212.383
  H       21.422     237.368    -210.197
  H       19.760     238.741    -207.203
  H       18.399     236.864    -208.857
  H       20.326     235.513    -209.148
  H       20.937     236.048    -206.188
  H       22.400     234.357    -207.087
  H       22.689     235.282    -208.579
  P       18.946     233.345    -208.668
  C       16.348     232.980    -208.881
  O       17.479     233.798    -209.135
  O       18.700     232.096    -207.700
  O       19.937     233.119    -209.759
  H       18.471     232.378    -206.795
  H       15.470     233.455    -209.268
  H       16.241     232.837    -207.826
  H       16.480     232.031    -209.358

 6  7  8  9  10  11  12  13  14  15  16  27  31  32  33  34  35 0
 6-311+G(2d,p)
 ****
 36  37 0
 6-311+G(2d,p)
 ****
 1  2  3  4  5  17  18  19  20  21  22  23  24  25 0
 3-21G
 ****
 26  28  29  30  38  39  40  41  42  43  44  45 0
 3-21G
 ****


