%nproc=1
%NoSave
%Mem=1900MB
#P OB98/GEN NMR

erre ene a

0 1
  C     -278.653     237.139     171.745
  O     -278.929     236.159     172.726
  H     -279.259     236.931     170.860
  H     -277.596     237.104     171.465
  H     -278.907     238.134     172.123
  P     -278.085     236.258     174.088
  C     -275.805     235.214     174.743
  O     -276.585     235.820     173.723
  C     -274.718     234.331     174.135
  O     -275.298     233.162     173.515
  C     -273.873     235.021     173.068
  O     -272.832     235.778     173.658
  C     -273.358     233.823     172.281
  O     -272.240     233.203     172.952
  C     -274.576     232.891     172.281
  N     -275.150     231.971     167.351
  C     -274.074     231.740     168.180
  N     -272.968     231.206     167.606
  N     -274.067     232.014     169.458
  C     -275.213     232.595     169.884
  C     -276.352     232.877     169.160
  C     -276.361     232.518     167.760
  O     -277.316     232.620     166.991
  N     -277.314     233.450     169.954
  C     -276.744     233.544     171.142
  N     -275.468     233.042     171.147
  O     -278.628     235.025     174.954
  O     -278.222     237.541     174.834
  H     -271.873     232.505     172.385
  H     -278.674     235.295     175.890
  H     -275.110     231.710     166.381
  H     -277.217     233.956     172.023
  H     -274.283     231.834     172.308
  H     -272.997     234.118     171.294
  H     -272.813     231.248     166.611
  H     -274.496     235.645     172.415
  H     -272.158     231.109     168.201
  H     -274.083     233.977     174.956
  H     -276.460     234.603     175.374
  H     -275.347     235.994     175.356
  P     -271.977     236.754     172.719
  C     -269.530     236.494     171.889
  O     -270.803     235.886     172.042
  O     -271.201     237.679     173.771
  O     -272.787     237.580     171.778
  H     -271.608     238.564     173.796
  H     -268.857     235.802     171.428
  H     -269.151     236.774     172.850
  H     -269.622     237.365     171.274

 6  7  8  9  10  11  12  13  14  15  26  29  33  34 0
 6-311+G(2d,p)
 ****
 36  38  39  40  41 0
 6-311+G(2d,p)
 ****
 1  2  3  4  5  16  17  18  19  20  21  22  23  24  25 0
 3-21G
 ****
 27  28  30  31  32  35  37  42  43  44  45  46  47 0
 3-21G
 ****
 48  49 0
 3-21G
 ****


