%nproc=1
%NoSave
%Mem=1900MB
#P OB98/GEN NMR

erre ene a

0 1
  C     -125.022    -151.653     135.460
  O     -124.753    -152.940     136.004
  P     -126.015    -153.878     136.339
  C     -125.536    -153.449     138.853
  O     -126.501    -153.438     137.803
  C     -125.627    -152.168     139.674
  O     -125.572    -151.025     138.799
  C     -126.911    -152.012     140.467
  O     -126.881    -152.748     141.679
  C     -126.914    -150.515     140.734
  O     -126.070    -150.223     141.864
  C     -126.301    -149.951     139.442
  N     -130.083    -146.649     138.768
  C     -129.294    -146.878     139.878
  N     -129.531    -146.094     140.955
  N     -128.361    -147.790     139.931
  C     -128.210    -148.470     138.771
  C     -128.930    -148.335     137.605
  C     -129.996    -147.355     137.575
  O     -130.770    -147.152     136.643
  N     -128.475    -149.192     136.635
  C     -127.457    -149.814     137.198
  N     -127.278    -149.432     138.506
  O     -125.343    -155.309     136.586
  O     -127.066    -153.930     135.281
  H     -126.416    -150.733     142.617
  H     -125.995    -156.017     136.406
  H     -130.776    -145.923     138.776
  H     -126.834    -150.542     136.704
  H     -125.576    -149.157     139.662
  H     -127.910    -150.125     140.971
  H     -130.140    -145.291     140.930
  H     -127.786    -152.279     139.858
  H     -128.939    -146.220     141.765
  H     -124.754    -152.127     140.339
  H     -124.531    -153.528     138.421
  H     -125.713    -154.325     139.484
  P     -127.839    -154.038     141.765
  C     -129.605    -152.540     142.948
  O     -129.323    -153.449     141.900
  O     -127.523    -154.630     143.219
  O     -127.619    -155.038     140.681
  H     -127.709    -155.591     143.236
  H     -128.755    -151.876     143.140
  H     -129.846    -153.094     143.855
  H     -130.464    -151.927     142.664
  H     -124.100    -151.139     135.286
  H     -125.618    -151.092     136.149
  H     -125.550    -151.760     134.536

 3  4  5  6  7  8  9  10  11  12  23  26  30  31  33  0
 6-311+G(2d,p)
 ****
 35  36  37  38 0
 6-311+G(2d,p)
 ****
 1  2  13  14  15  16  17  18  19  20  21  22  24  25  27  28  29 0
 3-21G
 ****
 32  34  39  40  41  42  43  44  45  46  47  48  49 0
 3-21G
 ****


