%nproc=1
%NoSave
%Mem=1900MB
#P OB98/GEN NMR

erre ene a

0 1
  C       60.831    -131.880     170.433
  O       60.164    -131.967     171.678
  P       59.737    -133.386     172.280
  C       57.313    -132.726     171.769
  O       58.199    -133.276     172.736
  C       56.377    -131.694     172.396
  O       55.593    -131.065     171.343
  C       55.388    -132.266     173.421
  O       55.195    -131.254     174.418
  C       54.114    -132.430     172.609
  O       52.945    -132.498     173.417
  C       54.203    -131.199     171.715
  N       49.569    -130.373     169.716
  C       50.053    -130.193     170.965
  N       51.293    -130.462     171.424
  C       52.067    -130.961     170.445
  C       51.704    -131.227     169.134
  C       50.389    -130.891     168.768
  N       49.886    -131.036     167.493
  N       52.763    -131.793     168.447
  C       53.741    -131.866     169.326
  N       53.386    -131.314     170.528
  O       60.657    -133.941     173.317
  O       59.666    -134.346     171.001
  H       53.075    -133.193     174.090
  H       60.435    -134.947     170.994
  H       49.358    -129.778     171.686
  H       54.715    -132.302     169.150
  H       53.905    -130.284     172.243
  H       54.172    -133.356     172.020
  H       55.717    -133.204     173.884
  H       56.990    -130.908     172.853
  H       56.722    -133.545     171.348
  H       48.978    -130.640     167.310
  H       50.539    -131.165     166.722
  H       57.892    -132.267     170.956
  P       55.225    -131.643     175.973
  C       52.689    -131.328     176.138
  O       53.954    -130.938     176.645
  O       56.528    -131.411     176.666
  O       54.822    -133.196     175.975
  H       55.080    -133.599     176.829
  H       52.489    -130.787     175.207
  H       51.919    -131.075     176.871
  H       52.657    -132.405     175.944
  H       61.029    -130.853     170.206
  H       60.214    -132.302     169.667
  H       61.754    -132.419     170.484

 3  4  5  6  7  8  9  10  11  12  22  25  29  30  31  32 0
 6-311+G(2d,p)
 ****
 33  36  37 0
 6-311+G(2d,p)
 ****
 1  2  13  14  15  16  17  18  19  20  21  23  24  26 0
 3-21G
 ****
 27  28  34  35  38  39  40  41  42  43  44  45  46  47  48 0
 3-21G
 ****


