%nproc=1
%NoSave
%Mem=1900MB
#P OB98/GEN NMR

erre ene a

0 1
  C      273.460    -248.617    1151.879
  O      273.137    -248.680    1153.272
  P      274.202    -249.173    1154.382
  C      276.017    -247.324    1154.320
  O      275.666    -248.660    1153.940
  C      276.507    -247.252    1155.764
  O      277.720    -248.031    1155.926
  C      276.860    -245.848    1156.248
  O      275.678    -245.132    1156.594
  C      277.790    -246.163    1157.419
  O      277.030    -246.498    1158.587
  C      278.542    -247.388    1156.902
  N      283.626    -247.519    1157.623
  C      282.584    -247.981    1158.377
  N      281.262    -247.902    1158.117
  C      281.047    -247.292    1156.920
  C      281.996    -246.791    1156.048
  C      283.340    -246.915    1156.440
  N      284.393    -246.449    1155.685
  N      281.400    -246.221    1154.943
  C      280.106    -246.414    1155.148
  N      279.844    -247.057    1156.319
  O      274.128    -250.632    1154.699
  O      273.875    -248.277    1155.682
  H      277.645    -246.902    1159.232
  H      274.133    -248.778    1156.480
  H      282.863    -248.469    1159.302
  H      279.320    -246.097    1154.463
  H      278.726    -248.126    1157.706
  H      278.438    -245.309    1157.679
  H      277.411    -245.320    1155.463
  H      275.742    -247.705    1156.406
  H      275.116    -246.686    1154.203
  H      285.343    -246.541    1156.041
  H      284.192    -245.942    1154.823
  H      276.786    -246.963    1153.628
  P      275.757    -243.551    1156.878
  C      274.821    -242.747    1154.626
  O      275.959    -242.827    1155.467
  O      276.709    -243.141    1157.960
  O      274.247    -243.172    1157.248
  H      274.252    -242.412    1157.861
  H      274.678    -243.706    1154.113
  H      274.984    -241.954    1153.893
  H      273.915    -242.512    1155.198
  H      272.611    -248.265    1151.331
  H      273.730    -249.592    1151.531
  H      274.281    -247.946    1151.733

 3  4  5  6  7  8  9  10  11  12  22  25  29  30  31  32 0
 6-311+G(2d,p)
 ****
 33  36  37 0
 6-311+G(2d,p)
 ****
 1  2  13  14  15  16  17  18  19  20  21  23  24  26 0
 3-21G
 ****
 27  28  34  35  38  39  40  41  42  43  44  45  46  47  48 0
 3-21G
 ****


