%nproc=1
%NoSave
%Mem=1900MB
#P OB98/GEN NMR

erre ene a

0 1
  C     -296.065      39.260    -337.358
  O     -295.713      38.078    -336.666
  H     -295.205      39.937    -337.359
  H     -296.906      39.757    -336.860
  H     -296.337      39.024    -338.391
  P     -296.886      36.994    -336.462
  C     -299.263      37.301    -335.428
  O     -297.912      37.737    -335.471
  C     -300.100      38.285    -334.612
  O     -299.835      39.641    -335.032
  C     -301.603      38.100    -334.760
  O     -302.108      37.021    -333.986
  C     -302.096      39.443    -334.249
  O     -302.009      39.472    -332.810
  C     -301.070      40.402    -334.893
  N     -301.504      40.923    -336.193
  C     -301.109      42.226    -336.506
  O     -300.443      42.887    -335.716
  N     -301.505      42.768    -337.711
  C     -302.227      42.062    -338.529
  N     -302.606      42.654    -339.699
  C     -302.650      40.679    -338.246
  C     -302.262      40.181    -337.073
  O     -296.218      35.894    -335.513
  O     -297.497      36.449    -337.711
  H     -302.299      38.599    -332.494
  H     -296.903      35.241    -335.229
  H     -303.259      40.136    -338.953
  H     -302.532      39.168    -336.796
  H     -300.852      41.249    -334.230
  H     -303.139      39.648    -334.514
  H     -301.899      37.992    -335.815
  H     -299.784      38.203    -333.558
  H     -302.355      43.621    -339.837
  H     -299.292      36.305    -334.968
  H     -303.308      42.251    -340.309
  H     -299.669      37.230    -336.443
  P     -303.467      36.321    -334.476
  C     -305.958      37.040    -334.676
  O     -304.664      37.348    -334.176
  O     -303.691      35.170    -333.389
  O     -303.432      35.781    -335.875
  H     -304.043      34.356    -333.805
  H     -306.642      37.814    -334.396
  H     -306.286      36.108    -334.266
  H     -305.920      36.966    -335.743

 6  7  8  9  10  11  12  13  14  15  16  26  30  31  32  33  35 0
 6-311+G(2d,p)
 ****
 37  38 0
 6-311+G(2d,p)
 ****
 1  2  3  4  5  17  18  19  20  21  22  23  24  25 0
 3-21G
 ****
 27  28  29  34  36  39  40  41  42  43  44  45  46 0
 3-21G
 ****


