%nproc=1
%NoSave
%Mem=1900MB
#P OB98/GEN NMR

erre ene a

0 1
  C      181.380     159.265      25.173
  O      182.038     158.278      24.403
  H      180.537     158.804      25.690
  H      181.005     160.058      24.523
  H      182.062     159.690      25.919
  P      183.443     158.675      23.739
  C      184.536     159.576      25.924
  O      184.545     158.581      24.907
  C      185.864     159.557      26.685
  O      185.814     158.478      27.672
  C      187.091     159.306      25.797
  O      188.188     160.075      26.314
  C      187.380     157.830      26.008
  O      188.724     157.457      25.735
  C      186.994     157.674      27.486
  N      186.744     156.278      27.855
  C      187.710     155.634      28.628
  O      188.715     156.175      29.089
  N      187.482     154.300      28.860
  C      186.431     153.565      28.395
  O      186.297     152.362      28.623
  C      185.450     154.297      27.578
  C      185.650     155.595      27.350
  O      183.294     160.250      23.498
  O      183.801     157.938      22.490
  H      182.910     160.428      22.617
  H      188.828     156.520      26.011
  H      188.174     153.820      29.419
  H      184.609     153.743      27.185
  H      184.955     156.165      26.729
  H      187.781     158.083      28.131
  H      186.721     157.224      25.369
  H      186.936     159.549      24.740
  H      185.964     160.496      27.242
  H      183.718     159.374      26.619
  H      184.376     160.558      25.465
  P      189.098     160.867      25.255
  C      189.823     162.855      26.811
  O      190.189     161.656      26.129
  O      188.083     162.006      24.761
  O      189.643     159.988      24.176
  H      187.491     162.316      25.474
  H      190.672     163.239      27.338
  H      189.037     162.644      27.506
  H      189.486     163.581      26.101

 6  7  8  9  10  11  12  13  14  15  16  27  31  32  33  34  35 0
 6-311+G(2d,p)
 ****
 36  37 0
 6-311+G(2d,p)
 ****
 1  2  3  4  5  17  18  19  20  21  22  23  24  25 0
 3-21G
 ****
 26  28  29  30  38  39  40  41  42  43  44  45 0
 3-21G
 ****


