%nproc=1
%NoSave
%Mem=1900MB
#P OB98/GEN NMR

erre ene a

0 1
  C      283.046      99.017     353.392
  O      283.898     100.134     353.273
  H      282.430      98.946     352.490
  H      282.384      99.145     354.254
  H      283.613      98.090     353.496
  P      285.101     100.304     354.315
  C      284.628     102.838     354.182
  O      285.617     101.818     354.171
  C      285.263     104.219     354.012
  O      286.418     104.321     354.897
  C      285.752     104.507     352.585
  O      285.630     105.920     352.365
  C      287.211     104.112     352.675
  O      287.965     104.656     351.610
  C      287.561     104.621     354.076
  N      288.788     104.022     354.600
  C      289.512     104.783     355.514
  O      289.180     105.918     355.861
  N      290.657     104.218     355.993
  C      291.180     103.017     355.602
  O      292.233     102.572     356.041
  C      290.397     102.277     354.598
  C      289.253     102.805     354.153
  O      286.175      99.271     354.243
  O      284.384     100.314     355.748
  H      287.610     104.349     350.749
  H      284.983      99.949     356.426
  H      291.188     104.751     356.667
  H      290.787     101.330     354.258
  H      288.655     102.285     353.413
  H      287.697     105.713     354.070
  H      287.319     103.026     352.629
  H      285.202     103.952     351.823
  H      284.544     104.981     354.343
  H      284.102     102.784     355.149
  H      283.905     102.654     353.379
  P      284.597     106.532     351.304
  C      286.338     108.426     351.128
  O      284.955     108.077     351.067
  O      283.163     106.280     351.629
  O      284.990     105.848     349.908
  H      284.204     105.797     349.331
  H      286.449     109.476     350.955
  H      286.876     107.883     350.380
  H      286.725     108.181     352.095

 6  7  8  9  10  11  12  13  14  15  16  26  31  32  33  34  35 0
 6-311+G(2d,p)
 ****
 36  37 0
 6-311+G(2d,p)
 ****
 1  2  3  4  5  17  18  19  20  21  22  23  24  25 0
 3-21G
 ****
 27  28  29  30  38  39  40  41  42  43  44  45 0
 3-21G
 ****


