%nproc=1
%NoSave
%Mem=1900MB
#P OB98/GEN NMR

erre ene a

0 1
  C     -443.494     268.772    -429.605
  O     -444.698     268.018    -429.532
  P     -444.615     266.480    -429.090
  C     -443.304     265.750    -431.274
  O     -443.423     265.755    -429.867
  C     -441.994     265.046    -431.672
  O     -440.865     265.769    -431.133
  C     -441.902     263.615    -431.159
  O     -442.509     262.692    -432.044
  C     -440.403     263.428    -431.023
  O     -439.811     263.187    -432.314
  C     -439.973     264.817    -430.482
  N     -440.028     265.039    -429.019
  C     -439.350     266.113    -428.453
  O     -438.674     266.920    -429.094
  N     -439.467     266.253    -427.097
  C     -440.317     265.557    -426.284
  O     -440.424     265.766    -425.080
  C     -441.122     264.533    -426.954
  C     -440.940     264.313    -428.261
  O     -445.935     265.832    -429.719
  O     -444.538     266.273    -427.609
  H     -438.847     263.290    -432.212
  H     -446.533     265.519    -429.012
  H     -438.927     266.982    -426.659
  H     -441.840     263.983    -426.357
  H     -441.530     263.554    -428.766
  H     -438.950     265.052    -430.797
  H     -440.167     262.560    -430.415
  H     -442.340     263.541    -430.154
  H     -441.918     265.058    -432.767
  H     -443.316     266.770    -431.666
  H     -444.161     265.230    -431.714
  P     -443.977     262.132    -431.727
  C     -442.902     260.008    -430.773
  O     -443.790     261.079    -430.532
  O     -444.757     261.644    -432.904
  O     -444.699     263.362    -430.996
  H     -445.234     263.888    -431.642
  H     -442.748     259.465    -429.836
  H     -441.937     260.382    -431.130
  H     -443.330     259.331    -431.513
  H     -443.718     269.772    -429.912
  H     -442.833     268.320    -430.315
  H     -443.026     268.790    -428.643

 3  4  5  6  7  8  9  10  11  12  13  23  28  29  30  31  32 0
 6-311+G(2d,p)
 ****
 33  34 0
 6-311+G(2d,p)
 ****
 1  2  14  15  16  17  18  19  20  21  22  24  25  26  27 0
 3-21G
 ****
 35  36  37  38  39  40  41  42  43  44  45 0
 3-21G
 ****


