%nproc=1
%NoSave
%Mem=1900MB
#P OB98/GEN NMR

erre ene a

0 1
  C       73.867    -326.994    -248.350
  O       75.158    -327.432    -247.994
  H       73.966    -326.120    -249.000
  H       73.304    -326.699    -247.461
  H       73.331    -327.776    -248.894
  P       75.319    -328.684    -247.001
  C       73.997    -327.877    -244.954
  O       73.973    -328.698    -246.114
  C       72.750    -328.100    -244.098
  O       71.567    -327.734    -244.859
  C       72.566    -329.556    -243.634
  O       72.252    -329.581    -242.241
  C       71.365    -330.035    -244.438
  O       70.676    -331.117    -243.816
  C       70.571    -328.734    -244.577
  N       69.558    -328.819    -245.619
  C       68.230    -328.697    -245.198
  O       67.969    -328.522    -244.005
  N       67.226    -328.831    -246.123
  C       67.523    -329.112    -247.354
  N       66.481    -329.259    -248.216
  C       68.910    -329.277    -247.837
  C       69.868    -329.114    -246.925
  O       76.589    -328.703    -246.220
  O       75.136    -329.971    -247.934
  H       69.988    -331.444    -244.431
  H       75.558    -330.746    -247.495
  H       69.104    -329.516    -248.870
  H       70.917    -329.216    -247.185
  H       70.081    -328.467    -243.631
  H       71.705    -330.373    -245.426
  H       73.443    -330.176    -243.816
  H       72.787    -327.415    -243.242
  H       65.546    -329.147    -247.842
  H       74.065    -326.831    -245.267
  H       66.586    -329.501    -249.189
  H       74.881    -328.138    -244.365
  P       73.471    -329.286    -241.237
  C       73.710    -331.764    -240.492
  O       74.330    -330.635    -241.092
  O       72.750    -329.136    -239.819
  O       74.253    -328.068    -241.591
  H       72.786    -328.204    -239.524
  H       74.402    -332.579    -240.466
  H       72.850    -332.044    -241.063
  H       73.411    -331.518    -239.494

 6  7  8  9  10  11  12  13  14  15  16  26  30  31  32  33  35 0
 6-311+G(2d,p)
 ****
 37  38 0
 6-311+G(2d,p)
 ****
 1  2  3  4  5  17  18  19  20  21  22  23  24  25 0
 3-21G
 ****
 27  28  29  34  36  39  40  41  42  43  44  45  46 0
 3-21G
 ****


