%nproc=1
%NoSave
%Mem=1900MB
#P OB98/GEN NMR

erre ene a

0 1
  C     -950.399     432.017    -175.788
  O     -949.536     430.975    -175.302
  P     -949.225     430.905    -173.734
  C     -946.733     431.570    -173.794
  O     -947.672     430.529    -173.546
  C     -945.366     431.217    -173.221
  O     -945.395     431.143    -171.771
  C     -944.852     429.861    -173.681
  O     -944.403     429.919    -175.020
  C     -943.764     429.589    -172.643
  O     -942.542     430.254    -172.983
  C     -944.381     430.211    -171.363
  N     -944.895     429.218    -170.435
  C     -944.169     429.037    -169.257
  O     -943.127     429.669    -169.058
  N     -944.635     428.135    -168.329
  C     -945.726     427.464    -168.564
  N     -946.128     426.580    -167.605
  C     -946.517     427.614    -169.808
  C     -946.040     428.483    -170.683
  O     -950.184     430.079    -172.925
  O     -949.271     432.440    -173.283
  H     -941.871     429.920    -172.347
  H     -949.566     432.491    -172.355
  H     -947.423     427.039    -169.950
  H     -946.564     428.666    -171.627
  H     -943.617     430.801    -170.830
  H     -943.535     428.512    -172.564
  H     -945.651     429.119    -173.584
  H     -944.648     432.005    -173.505
  H     -945.572     426.491    -166.777
  H     -947.104     432.503    -173.350
  H     -946.990     426.053    -167.675
  H     -946.680     431.744    -174.868
  P     -945.243     429.105    -176.121
  C     -943.207     427.925    -177.229
  O     -944.278     428.844    -177.369
  O     -946.277     430.202    -176.678
  O     -945.963     427.900    -175.591
  H     -947.114     429.765    -176.906
  H     -942.867     427.622    -178.221
  H     -943.535     427.026    -176.688
  H     -942.386     428.398    -176.688
  H     -950.506     431.926    -176.849
  H     -949.974     432.971    -175.553
  H     -951.359     431.930    -175.324

 3  4  5  6  7  8  9  10  11  12  13  23  27  28  29  30  32 0
 6-311+G(2d,p)
 ****
 34  35 0
 6-311+G(2d,p)
 ****
 1  2  14  15  16  17  18  19  20  21  22  24  25  26 0
 3-21G
 ****
 31  33  36  37  38  39  40  41  42  43  44  45  46 0
 3-21G
 ****


