%nproc=1
%NoSave
%Mem=1900MB
#P OB98/GEN NMR

erre ene a

0 1
  C     -165.976     224.508    -498.424
  O     -166.053     224.615    -497.005
  P     -166.056     226.091    -496.372
  C     -163.481     226.012    -496.706
  O     -164.679     226.767    -496.849
  C     -162.421     226.826    -495.966
  O     -162.191     228.077    -496.643
  C     -162.788     227.196    -494.536
  O     -162.532     226.133    -493.627
  C     -161.836     228.352    -494.283
  O     -160.521     227.847    -493.981
  C     -161.835     229.066    -495.641
  N     -162.277     234.152    -495.372
  C     -161.220     233.331    -495.192
  N     -161.184     231.985    -495.271
  C     -162.411     231.493    -495.528
  C     -163.586     232.207    -495.696
  C     -163.493     233.606    -495.620
  N     -164.566     234.443    -495.825
  N     -164.639     231.351    -495.939
  C     -164.110     230.145    -495.931
  N     -162.762     230.180    -495.699
  O     -165.812     225.815    -494.810
  O     -167.297     226.880    -496.616
  H     -160.274     227.243    -494.713
  H     -166.151     226.563    -494.285
  H     -160.280     233.823    -494.971
  H     -164.658     229.229    -496.097
  H     -160.841     229.448    -495.907
  H     -162.140     228.973    -493.435
  H     -163.826     227.550    -494.470
  H     -161.482     226.257    -495.989
  H     -163.104     225.750    -497.693
  H     -164.379     235.426    -495.941
  H     -165.415     234.042    -496.206
  H     -163.703     225.089    -496.156
  P     -163.574     225.955    -492.416
  C     -161.630     226.506    -490.779
  O     -162.958     226.781    -491.195
  O     -163.375     224.421    -491.993
  O     -164.989     226.262    -492.780
  H     -164.179     224.075    -491.573
  H     -161.272     227.337    -490.175
  H     -160.963     226.381    -491.641
  H     -161.619     225.595    -490.173
  H     -165.983     223.476    -498.705
  H     -165.072     224.965    -498.768
  H     -166.816     225.003    -498.865

 3  4  5  6  7  8  9  10  11  12  22  25  29  30  31  32 0
 6-311+G(2d,p)
 ****
 33  36  37 0
 6-311+G(2d,p)
 ****
 1  2  13  14  15  16  17  18  19  20  21  23  24  26 0
 3-21G
 ****
 27  28  34  35  38  39  40  41  42  43  44  45  46  47  48 0
 3-21G
 ****


