%nproc=1
%NoSave
%Mem=1900MB
#P OB98/GEN NMR

erre ene a

0 1
  C       99.961    -252.811    -100.465
  O       99.397    -251.571    -100.088
  H       99.391    -253.614     -99.991
  H      101.001    -252.880    -100.137
  H       99.904    -252.937    -101.549
  P      100.143    -250.219    -100.519
  C       97.961    -248.876    -100.771
  O       99.190    -249.009    -100.070
  C       96.845    -248.417     -99.829
  O       96.434    -249.550     -99.015
  C       97.267    -247.282     -98.886
  O       96.156    -246.399     -98.723
  C       97.559    -248.014     -97.594
  O       97.451    -247.157     -96.474
  C       96.549    -249.166     -97.633
  N       96.985    -250.278     -96.789
  C       96.867    -250.094     -95.405
  O       96.408    -249.046     -94.954
  N       97.337    -251.072     -94.567
  C       97.922    -252.118     -95.059
  N       98.398    -253.032     -94.170
  C       98.089    -252.343     -96.512
  C       97.603    -251.394     -97.307
  O      100.615    -250.149    -101.934
  O      101.367    -250.119     -99.491
  H       97.631    -247.665     -95.654
  H      102.154    -250.561     -99.862
  H       98.592    -253.227     -96.869
  H       97.690    -251.467     -98.387
  H       95.563    -248.828     -97.290
  H       98.584    -248.409     -97.617
  H       98.137    -246.724     -99.250
  H       95.978    -248.127    -100.432
  H       98.282    -252.825     -93.184
  H       97.705    -249.856    -101.191
  H       98.906    -253.859     -94.429
  H       98.076    -248.160    -101.592
  P       96.196    -244.910     -99.324
  C       93.646    -244.680     -99.373
  O       94.862    -244.129     -98.880
  O       96.500    -244.835    -100.785
  O       97.346    -244.182     -98.471
  H       97.769    -243.497     -99.026
  H       92.822    -244.093     -99.025
  H       93.542    -245.685     -99.022
  H       93.660    -244.675    -100.443

 6  7  8  9  10  11  12  13  14  15  16  26  30  31  32  33  35 0
 6-311+G(2d,p)
 ****
 37  38 0
 6-311+G(2d,p)
 ****
 1  2  3  4  5  17  18  19  20  21  22  23  24  25 0
 3-21G
 ****
 27  28  29  34  36  39  40  41  42  43  44  45  46 0
 3-21G
 ****


