%nproc=1
%NoSave
%Mem=1900MB
#P OB98/GEN NMR

erre ene a

0 1
  C      107.312     172.373      -1.988
  O      105.919     172.621      -1.782
  P      105.334     174.090      -2.031
  C      103.681     174.359      -0.059
  O      103.837     174.169      -1.461
  C      102.216     174.154       0.337
  O      101.929     172.759       0.598
  C      101.845     174.874       1.628
  O      101.799     176.284       1.581
  C      100.578     174.148       2.049
  O       99.429     174.661       1.372
  C      100.878     172.703       1.588
  N      101.240     171.821       2.699
  C      100.185     171.195       3.353
  O       99.005     171.387       3.067
  N      100.530     170.362       4.384
  C      101.798     170.126       4.831
  O      102.049     169.385       5.774
  C      102.871     170.834       4.116
  C      102.550     171.635       3.099
  O      105.520     174.637      -3.406
  O      106.150     174.978      -0.966
  H       99.518     174.423       0.429
  H      106.386     175.821      -1.401
  H       99.779     169.893       4.863
  H      103.888     170.675       4.449
  H      103.325     172.166       2.558
  H      100.002     172.268       1.091
  H      100.390     174.254       3.122
  H      102.610     174.630       2.379
  H      101.582     174.470      -0.494
  H      104.011     175.363       0.216
  H      104.339     173.662       0.471
  P      102.366     177.223       2.749
  C      100.349     178.844       2.594
  O      101.750     178.691       2.563
  O      103.823     177.125       3.059
  O      101.540     176.682       4.018
  H      102.105     176.761       4.809
  H      100.111     179.901       2.435
  H       99.953     178.538       3.565
  H       99.882     178.258       1.797
  H      107.527     171.346      -1.777
  H      107.886     172.999      -1.337
  H      107.566     172.589      -3.005

 3  4  5  6  7  8  9  10  11  12  13  23  28  29  30  31  32 0
 6-311+G(2d,p)
 ****
 33  34 0
 6-311+G(2d,p)
 ****
 1  2  14  15  16  17  18  19  20  21  22  24  25  26  27 0
 3-21G
 ****
 35  36  37  38  39  40  41  42  43  44  45 0
 3-21G
 ****


