%nproc=1
%NoSave
%Mem=1900MB
#P OB98/GEN NMR

erre ene a

0 1
  C     -273.705     178.221    -165.527
  O     -273.121     178.809    -166.674
  H     -273.930     177.160    -165.717
  H     -273.003     178.285    -164.692
  H     -274.632     178.752    -165.264
  P     -273.963     178.710    -168.035
  C     -274.727     176.752    -169.557
  O     -273.850     177.178    -168.525
  C     -273.991     175.881    -170.553
  O     -273.369     174.750    -169.883
  C     -274.852     175.263    -171.644
  O     -275.150     176.192    -172.674
  C     -273.946     174.157    -172.139
  O     -272.968     174.691    -173.046
  C     -273.254     173.679    -170.853
  N     -272.285     169.025    -168.889
  C     -271.471     169.996    -169.380
  N     -271.800     171.198    -169.899
  C     -273.124     171.382    -169.861
  C     -274.096     170.491    -169.415
  C     -273.621     169.257    -168.907
  N     -274.474     168.272    -168.440
  N     -275.354     171.023    -169.533
  C     -275.165     172.218    -170.046
  N     -273.833     172.480    -170.288
  O     -273.056     179.510    -169.091
  O     -275.347     179.261    -167.971
  H     -272.454     173.931    -173.396
  H     -273.639     179.973    -169.717
  H     -270.416     169.766    -169.349
  H     -275.957     172.928    -170.273
  H     -272.184     173.512    -171.005
  H     -274.474     173.360    -172.668
  H     -275.763     174.823    -171.213
  H     -273.173     176.479    -171.005
  H     -275.132     177.625    -170.085
  H     -274.069     167.509    -167.916
  H     -275.472     168.455    -168.442
  H     -275.561     176.191    -169.102
  P     -276.026     175.667    -173.925
  C     -275.589     173.917    -175.789
  O     -275.019     174.758    -174.792
  O     -276.206     176.977    -174.815
  O     -277.343     175.039    -173.560
  H     -277.012     176.898    -175.364
  H     -274.812     173.374    -176.284
  H     -276.116     174.516    -176.502
  H     -276.268     173.229    -175.330

 6  7  8  9  10  11  12  13  14  15  25  28  32  33  34  35 0
 6-311+G(2d,p)
 ****
 36  39  40 0
 6-311+G(2d,p)
 ****
 1  2  3  4  5  16  17  18  19  20  21  22  23  24 0
 3-21G
 ****
 26  27  29  30  31  37  38  41  42  43  44  45  46  47  48 0
 3-21G
 ****


