%nproc=1
%NoSave
%Mem=1900MB
#P OB98/GEN NMR

erre ene a

0 1
  C      964.696    -625.667      40.772
  O      965.833    -625.115      41.453
  P      967.137    -624.790      40.573
  C      967.266    -622.299      41.356
  O      967.870    -623.592      41.328
  C      967.722    -621.523      42.604
  O      967.013    -621.995      43.782
  C      969.199    -621.706      42.922
  O      970.021    -620.954      42.039
  C      969.239    -621.232      44.376
  O      969.279    -619.797      44.429
  C      967.887    -621.762      44.908
  N      968.029    -622.961      45.734
  C      968.667    -622.779      46.966
  O      969.109    -621.706      47.335
  N      968.776    -623.897      47.746
  C      968.363    -625.153      47.402
  O      968.499    -626.120      48.145
  C      967.754    -625.297      46.073
  C      967.616    -624.209      45.306
  O      966.475    -624.112      39.277
  O      967.970    -626.004      40.300
  H      965.688    -623.584      39.494
  H      970.051    -619.535      43.880
  H      969.234    -623.785      48.648
  H      967.443    -626.281      45.761
  H      967.158    -624.286      44.339
  H      967.388    -620.984      45.512
  H      970.127    -621.608      44.916
  H      969.478    -622.763      42.861
  H      967.494    -620.468      42.459
  H      966.175    -622.392      41.386
  H      967.521    -621.758      40.450
  P      971.593    -621.277      42.060
  C      971.719    -621.905      39.521
  O      972.132    -621.048      40.557
  O      971.599    -622.863      42.234
  O      972.336    -620.522      43.118
  H      970.940    -623.315      41.666
  H      971.891    -621.417      38.565
  H      970.661    -622.173      39.614
  H      972.317    -622.820      39.551
  H      963.906    -625.833      41.474
  H      964.969    -626.596      40.317
  H      964.366    -624.984      40.018

 3  4  5  6  7  8  9  10  11  12  13  24  28  29  30  31  32 0
 6-311+G(2d,p)
 ****
 33  34 0
 6-311+G(2d,p)
 ****
 1  2  14  15  16  17  18  19  20  21  22  23  25  26  27 0
 3-21G
 ****
 35  36  37  38  39  40  41  42  43  44  45 0
 3-21G
 ****


