%nproc=1
%NoSave
%Mem=1900MB
#P OB98/GEN NMR

erre ene a

0 1
  C     1139.494    -255.918    -888.270
  O     1140.276    -254.828    -888.690
  H     1140.053    -256.485    -887.530
  H     1139.249    -256.582    -889.120
  H     1138.566    -255.563    -887.790
  P     1139.707    -253.890    -889.870
  C     1141.442    -254.537    -891.670
  O     1140.095    -254.610    -891.240
  C     1141.754    -255.637    -892.710
  O     1141.113    -255.260    -893.950
  C     1143.255    -255.821    -893.010
  O     1143.473    -257.186    -893.370
  C     1143.458    -254.895    -894.200
  O     1144.667    -255.153    -894.830
  C     1142.152    -255.191    -894.980
  N     1141.877    -254.190    -895.990
  C     1141.795    -254.654    -897.320
  O     1141.964    -255.849    -897.560
  N     1141.557    -253.743    -898.310
  C     1141.472    -252.455    -898.040
  N     1141.246    -251.619    -899.060
  C     1141.625    -251.924    -896.660
  C     1141.814    -252.825    -895.700
  O     1140.080    -252.435    -889.790
  O     1138.112    -254.105    -889.770
  H     1144.897    -254.441    -895.470
  H     1137.696    -253.296    -889.380
  H     1141.574    -250.861    -896.460
  H     1141.931    -252.541    -894.670
  H     1142.199    -256.172    -895.470
  H     1143.477    -253.854    -893.880
  H     1143.884    -255.566    -892.130
  H     1141.297    -256.580    -892.380
  H     1141.176    -252.024    -900.000
  H     1142.075    -254.691    -890.790
  H     1141.191    -250.622    -898.970
  H     1141.676    -253.554    -892.100
  P     1143.946    -258.306    -892.330
  C     1146.405    -257.753    -892.860
  O     1145.442    -257.966    -891.840
  O     1143.762    -259.715    -892.820
  O     1143.044    -258.067    -891.010
  H     1142.913    -258.909    -890.560
  H     1147.354    -257.537    -892.415
  H     1146.101    -256.929    -893.471
  H     1146.486    -258.633    -893.463

 6  7  8  9  10  11  12  13  14  15  16  26  30  31  32  33  35 0
 6-311+G(2d,p)
 ****
 37  38 0
 6-311+G(2d,p)
 ****
 1  2  3  4  5  17  18  19  20  21  22  23  24  25 0
 3-21G
 ****
 27  28  29  34  36  39  40  41  42  43  44  45  46 0
 3-21G
 ****


