%nproc=1
%NoSave
%Mem=1900MB
#P OB98/GEN NMR

erre ene a

0 1
  C      -11.179     -91.543    -415.791
  O      -12.500     -91.590    -415.278
  P      -13.658     -90.936    -416.179
  C      -13.985     -92.868    -417.907
  O      -13.494     -91.562    -417.644
  C      -14.859     -92.847    -419.161
  O      -16.024     -92.017    -418.947
  C      -14.167     -92.293    -420.400
  O      -13.368     -93.290    -421.007
  C      -15.357     -91.857    -421.248
  O      -15.931     -92.980    -421.942
  C      -16.325     -91.311    -420.185
  N      -18.533     -86.858    -421.092
  C      -18.811     -88.111    -421.605
  N      -19.866     -88.191    -422.445
  N      -18.130     -89.184    -421.316
  C      -17.097     -88.952    -420.469
  C      -16.707     -87.758    -419.905
  C      -17.508     -86.588    -420.194
  O      -17.360     -85.478    -419.689
  N      -15.596     -87.910    -419.117
  C      -15.338     -89.201    -419.181
  N      -16.227     -89.882    -419.970
  O      -13.174     -89.421    -416.345
  O      -15.038     -91.041    -415.616
  H      -15.282     -93.333    -422.577
  H      -13.636     -88.839    -415.711
  H      -19.103     -86.070    -421.335
  H      -14.530     -89.691    -418.658
  H      -17.370     -91.530    -420.430
  H      -15.075     -91.129    -422.013
  H      -20.424     -87.401    -422.734
  H      -13.559     -91.417    -420.140
  H      -20.086     -89.099    -422.837
  H      -15.212     -93.870    -419.343
  H      -14.580     -93.207    -417.056
  H      -13.140     -93.551    -418.040
  P      -12.309     -92.819    -422.118
  C      -10.851     -91.869    -420.192
  O      -11.425     -91.653    -421.465
  O      -13.218     -92.055    -423.193
  O      -11.537     -93.929    -422.750
  H      -12.871     -92.217    -424.091
  H       -9.923     -91.293    -420.122
  H      -10.629     -92.926    -420.018
  H      -11.544     -91.518    -419.420
  H      -10.510     -92.010    -415.098
  H      -10.889     -90.523    -415.935
  H      -11.141     -92.061    -416.727

 3  4  5  6  7  8  9  10  11  12  23  26  30  31 0
 6-311+G(2d,p)
 ****
 33  35  36  37  38 0
 6-311+G(2d,p)
 ****
 1  2  13  14  15  16  17  18  19  20  21  22  24  25 0
 3-21G
 ****
 27  28  29  32  34  39  40  41  42  43  44  45  46  47  48  49 0
 3-21G
 ****


