%nproc=1
%NoSave
%Mem=1900MB
#P OB98/GEN NMR

erre ene a

0 1
  C      244.255    -233.572      -9.940
  O      244.009    -234.407      -8.820
  P      244.473    -233.874      -7.377
  C      246.811    -235.000      -7.533
  O      246.076    -233.790      -7.402
  C      247.921    -235.082      -6.484
  O      249.010    -234.205      -6.883
  C      247.492    -234.667      -5.068
  O      248.228    -235.491      -4.157
  C      247.960    -233.225      -5.002
  O      248.040    -232.700      -3.688
  C      249.279    -233.332      -5.763
  N      251.618    -229.012      -4.340
  C      251.323    -230.144      -3.659
  N      250.706    -231.257      -4.109
  C      250.392    -231.134      -5.408
  C      250.610    -230.033      -6.225
  C      251.256    -228.936      -5.642
  N      251.547    -227.778      -6.339
  N      250.124    -230.268      -7.496
  C      249.618    -231.486      -7.445
  N      249.776    -232.054      -6.211
  O      244.188    -235.124      -6.421
  O      243.776    -232.632      -6.907
  H      248.435    -231.806      -3.708
  H      243.845    -234.834      -5.556
  H      251.623    -230.156      -2.614
  H      249.123    -231.987      -8.263
  H      250.063    -233.803      -5.155
  H      247.249    -232.594      -5.553
  H      246.421    -234.797      -4.882
  H      248.314    -236.108      -6.475
  H      247.272    -235.040      -8.526
  H      251.827    -226.978      -5.784
  H      251.096    -227.655      -7.234
  H      246.127    -235.851      -7.449
  P      247.638    -235.732      -2.680
  C      249.034    -233.838      -1.646
  O      247.738    -234.286      -1.986
  O      248.857    -236.505      -1.990
  O      246.328    -236.440      -2.609
  H      249.703    -236.033      -2.120
  H      248.966    -232.810      -1.277
  H      249.686    -233.853      -2.531
  H      249.456    -234.469      -0.860
  H      243.896    -234.051     -10.827
  H      245.307    -233.396     -10.030
  H      243.747    -232.639      -9.808

 3  4  5  6  7  8  9  10  11  12  22  25  29  30  31  32 0
 6-311+G(2d,p)
 ****
 33  36  37 0
 6-311+G(2d,p)
 ****
 1  2  13  14  15  16  17  18  19  20  21  23  24  26 0
 3-21G
 ****
 27  28  34  35  38  39  40  41  42  43  44  45  46  47  48 0
 3-21G
 ****


