%nproc=1
%NoSave
%Mem=1900MB
#P OB98/GEN NMR

erre ene a

0 1
  C      822.156      12.021    -801.657
  O      822.615      13.328    -801.274
  P      823.910      13.562    -800.361
  C      822.731      14.496    -798.271
  O      823.501      13.436    -798.795
  C      822.136      14.125    -796.918
  O      823.101      13.473    -796.072
  C      821.620      15.311    -796.068
  O      820.385      15.786    -796.576
  C      821.546      14.669    -794.701
  O      820.323      13.936    -794.524
  C      822.775      13.726    -794.710
  N      823.903      14.276    -793.993
  C      823.810      14.336    -792.579
  O      822.750      13.993    -792.030
  N      824.867      14.801    -791.848
  C      825.930      15.237    -792.475
  N      826.942      15.681    -791.695
  C      826.038      15.272    -793.942
  C      824.999      14.787    -794.641
  O      824.671      14.800    -800.701
  O      824.836      12.259    -800.602
  H      820.359      13.603    -793.581
  H      825.768      12.520    -800.518
  H      826.930      15.691    -794.413
  H      825.012      14.769    -795.717
  H      822.499      12.768    -794.272
  H      821.583      15.431    -793.896
  H      822.391      16.095    -796.102
  H      821.294      13.408    -797.083
  H      826.818      15.651    -790.688
  H      821.920      14.721    -798.962
  H      827.803      16.051    -792.072
  H      823.354      15.373    -798.182
  P      820.387      17.030    -797.601
  C      819.668      18.535    -795.655
  O      820.561      18.351    -796.746
  O      819.257      17.044    -798.583
  O      821.789      16.905    -798.381
  H      821.682      17.228    -799.261
  H      820.130      19.219    -794.925
  H      819.484      17.567    -795.148
  H      818.738      18.976    -796.002
  H      821.279      12.114    -802.263
  H      821.925      11.453    -800.780
  H      822.922      11.523    -802.213

 3  4  5  6  7  8  9  10  11  12  13  23  27  28  29  30  32 0
 6-311+G(2d,p)
 ****
 34  35 0
 6-311+G(2d,p)
 ****
 1  2  14  15  16  17  18  19  20  21  22  24  25  26 0
 3-21G
 ****
 31  33  36  37  38  39  40  41  42  43  44  45  46 0
 3-21G
 ****


