%nproc=1
%NoSave
%Mem=1900MB
#P OB98/GEN NMR

erre ene a

0 1
  C     1587.767    -220.270     250.577
  O     1586.386    -220.001     250.721
  H     1588.303    -219.314     250.446
  H     1587.949    -220.886     249.701
  H     1588.156    -220.762     251.476
  P     1585.421    -221.273     250.896
  C     1585.186    -221.540     248.327
  O     1584.537    -221.275     249.563
  C     1584.193    -222.005     247.271
  O     1583.764    -223.356     247.560
  C     1582.935    -221.162     247.187
  O     1583.157    -220.003     246.379
  C     1581.981    -222.133     246.496
  O     1582.229    -222.141     245.078
  C     1582.394    -223.476     247.116
  N     1577.863    -225.451     248.566
  C     1578.285    -224.945     247.379
  N     1579.466    -224.385     247.084
  C     1580.286    -224.396     248.162
  C     1579.995    -224.847     249.444
  C     1578.717    -225.416     249.615
  N     1578.292    -225.924     250.818
  N     1581.075    -224.680     250.280
  C     1582.013    -224.174     249.514
  N     1581.564    -223.938     248.243
  O     1584.679    -221.344     252.189
  O     1586.459    -222.474     250.636
  H     1582.380    -221.193     244.828
  H     1587.063    -222.247     249.895
  H     1577.566    -224.996     246.573
  H     1583.029    -223.971     249.841
  H     1582.363    -224.281     246.366
  H     1580.928    -221.852     246.642
  H     1582.541    -220.888     248.165
  H     1584.722    -222.036     246.303
  H     1585.980    -222.292     248.477
  H     1577.297    -226.122     250.925
  H     1578.861    -225.778     251.649
  H     1585.685    -220.603     248.008
  P     1583.692    -218.612     246.999
  C     1581.331    -217.575     247.018
  O     1582.660    -217.521     246.481
  O     1585.144    -218.360     246.774
  O     1583.330    -218.753     248.561
  H     1583.847    -218.081     249.074
  H     1580.741    -216.792     246.590
  H     1581.370    -217.452     248.080
  H     1580.890    -218.522     246.784

 6  7  8  9  10  11  12  13  14  15  25  28  32  33  34  35 0
 6-311+G(2d,p)
 ****
 36  39  40 0
 6-311+G(2d,p)
 ****
 1  2  3  4  5  16  17  18  19  20  21  22  23  24 0
 3-21G
 ****
 26  27  29  30  31  37  38  41  42  43  44  45  46  47 0
 3-21G
 ****
 48 0
 3-21G
 ****


