%nproc=1
%NoSave
%Mem=1900MB
#P OB98/GEN NMR

erre ene a

0 1
  C       79.020     -39.909     465.039
  O       78.044     -38.896     465.210
  H       79.594     -39.994     465.962
  H       79.699     -39.649     464.225
  H       78.542     -40.872     464.835
  P       77.058     -38.568     463.984
  C       78.129     -36.229     463.622
  O       77.888     -37.522     463.085
  C       79.342     -35.594     462.960
  O       80.554     -36.307     463.278
  C       79.304     -35.569     461.438
  O       78.391     -34.617     460.899
  C       80.748     -35.221     461.136
  O       80.972     -33.824     461.387
  C       81.481     -36.108     462.169
  N       81.907     -37.398     461.617
  C       83.184     -37.842     461.985
  O       83.899     -37.165     462.724
  N       83.635     -39.038     461.467
  C       82.894     -39.712     460.640
  N       83.397     -40.881     460.157
  C       81.553     -39.265     460.220
  C       81.127     -38.116     460.735
  O       75.671     -38.138     464.352
  O       77.103     -39.889     463.071
  H       80.899     -33.689     462.348
  H       76.500     -39.739     462.303
  H       80.986     -39.852     459.503
  H       80.148     -37.720     460.462
  H       82.361     -35.586     462.577
  H       81.032     -35.415     460.095
  H       79.090     -36.575     461.033
  H       79.451     -34.576     463.374
  H       84.320     -41.163     460.464
  H       78.278     -36.334     464.703
  H       82.923     -41.432     459.451
  H       77.258     -35.584     463.456
  P       77.998     -34.785     459.344
  C       78.954     -32.409     458.815
  O       78.962     -33.799     458.527
  O       76.551     -34.086     459.265
  O       77.978     -36.199     458.843
  H       75.846     -34.758     459.302
  H       79.654     -31.909     458.179
  H       79.229     -32.255     459.838
  H       77.974     -32.015     458.646

 6  7  8  9  10  11  12  13  14  15  16  26  30  31  32  33  35 0
 6-311+G(2d,p)
 ****
 37  38 0
 6-311+G(2d,p)
 ****
 1  2  3  4  5  17  18  19  20  21  22  23  24  25 0
 3-21G
 ****
 27  28  29  34  36  39  40  41  42  43  44  45  46 0
 3-21G
 ****


