%nproc=1
%NoSave
%Mem=1900MB
#P OB98/GEN NMR

erre ene a

0 1
  C      275.227     117.868    -400.633
  O      275.707     119.188    -400.826
  P      275.873     119.709    -402.334
  C      278.452     119.742    -402.163
  O      277.272     120.497    -402.394
  C      279.697     120.586    -402.414
  O      279.768     120.908    -403.830
  C      279.727     121.912    -401.640
  O      281.043     122.120    -401.106
  C      279.498     122.960    -402.716
  O      280.044     124.225    -402.357
  C      280.181     122.286    -403.906
  N      280.469     126.430    -406.778
  C      281.139     126.117    -405.611
  N      281.954     127.072    -405.112
  N      281.015     124.977    -404.986
  C      280.188     124.106    -405.617
  C      279.476     124.296    -406.779
  C      279.577     125.588    -407.426
  O      278.944     125.955    -408.412
  N      278.761     123.176    -407.115
  C      279.033     122.310    -406.157
  N      279.855     122.847    -405.198
  O      274.778     120.872    -402.430
  O      275.662     118.680    -403.390
  H      279.505     124.571    -401.620
  H      274.168     120.692    -403.172
  H      280.589     127.329    -407.209
  H      278.633     121.306    -406.097
  H      281.273     122.321    -403.792
  H      278.423     123.079    -402.879
  H      282.124     127.956    -405.561
  H      278.988     121.982    -400.834
  H      282.471     126.852    -404.268
  H      280.583     119.981    -402.181
  H      278.464     118.875    -402.833
  H      278.446     119.384    -401.129
  P      281.200     121.909    -399.521
  C      283.298     123.454    -399.542
  O      282.740     122.199    -399.194
  O      281.064     120.324    -399.343
  O      280.202     122.665    -398.707
  H      280.760     120.108    -398.441
  H      282.535     124.170    -399.863
  H      284.015     123.311    -400.349
  H      283.818     123.862    -398.671
  H      275.168     117.660    -399.585
  H      275.896     117.174    -401.098
  H      274.255     117.774    -401.071

 3  4  5  6  7  8  9  10  11  12  23  26  30  31  33  0
 6-311+G(2d,p)
 ****
 35  36  37  38 0
 6-311+G(2d,p)
 ****
 1  2  13  14  15  16  17  18  19  20  21  22  24  25  27  28  29 0
 3-21G
 ****
 32  34  39  40  41  42  43  44  45  46  47  48  49 0
 3-21G
 ****


