%nproc=1
%NoSave
%Mem=1900MB
#P OB98/GEN NMR

erre ene a

0 1
  C        8.260    -120.405    -179.458
  O        8.983    -119.298    -178.946
  P        8.936    -117.927    -179.781
  C        9.871    -117.169    -182.087
  O        9.907    -118.131    -181.042
  C       11.227    -117.095    -182.783
  O       12.220    -116.516    -181.910
  C       11.793    -118.451    -183.189
  O       11.236    -118.926    -184.403
  C       13.263    -118.107    -183.378
  O       13.461    -117.488    -184.662
  C       13.504    -117.095    -182.251
  N       17.509    -119.622    -180.471
  C       17.330    -118.994    -181.689
  N       18.341    -119.108    -182.576
  N       16.261    -118.313    -182.004
  C       15.329    -118.293    -181.020
  C       15.393    -118.874    -179.772
  C       16.578    -119.632    -179.441
  O       16.772    -120.255    -178.401
  N       14.257    -118.626    -179.048
  C       13.508    -117.896    -179.848
  N       14.095    -117.703    -181.072
  O        9.749    -116.904    -178.855
  O        7.564    -117.433    -180.092
  H       14.405    -117.235    -184.707
  H        9.556    -115.985    -179.124
  H       18.352    -120.139    -180.278
  H       12.532    -117.502    -179.593
  H       14.155    -116.275    -182.571
  H       13.911    -118.987    -183.346
  H       19.163    -119.671    -182.417
  H       11.692    -119.183    -182.379
  H       18.211    -118.711    -183.499
  H       11.124    -116.442    -183.659
  H        9.621    -116.191    -181.668
  H        9.092    -117.444    -182.805
  P       11.004    -120.512    -184.519
  C       12.599    -122.534    -184.171
  O       12.469    -121.159    -184.478
  O       10.542    -120.697    -186.039
  O       10.011    -121.063    -183.550
  H        9.992    -121.497    -186.132
  H       13.605    -122.859    -184.447
  H       11.874    -123.131    -184.731
  H       12.458    -122.689    -183.099
  H        8.381    -121.243    -178.804
  H        8.631    -120.655    -180.430
  H        7.222    -120.153    -179.526

 3  4  5  6  7  8  9  10  11  12  23  26  30  31 0
 6-311+G(2d,p)
 ****
 33  35  36  37  38 0
 6-311+G(2d,p)
 ****
 1  2  13  14  15  16  17  18  19  20  21  22  24  25 0
 3-21G
 ****
 27  28  29  32  34  39  40  41  42  43  44  45  46  47  48  49 0
 3-21G
 ****


