%nproc=1
%NoSave
%Mem=1900MB
#P OB98/GEN NMR

erre ene a

0 1
  C       33.067      70.552     -26.228
  O       33.988      70.832     -27.268
  P       35.572      70.865     -27.001
  C       35.930      68.392     -27.670
  O       35.971      69.356     -26.633
  C       37.288      67.699     -27.805
  O       38.263      68.674     -28.258
  C       37.817      67.086     -26.502
  O       38.528      65.894     -26.852
  C       38.771      68.148     -25.992
  O       39.734      67.629     -25.087
  C       39.349      68.674     -27.310
  N       39.928      70.006     -27.176
  C       40.992      70.339     -28.015
  O       41.440      69.525     -28.822
  N       41.534      71.596     -27.922
  C       41.109      72.418     -27.013
  N       41.636      73.672     -27.000
  C       40.061      72.068     -26.036
  C       39.508      70.869     -26.190
  O       36.019      71.886     -26.014
  O       36.213      71.032     -28.453
  H       39.263      67.237     -24.328
  H       36.265      71.976     -28.746
  H       39.761      72.778     -25.278
  H       38.715      70.536     -25.535
  H       40.103      67.980     -27.696
  H       38.205      68.927     -25.470
  H       37.018      66.837     -25.798
  H       37.207      66.931     -28.584
  H       42.220      73.928     -27.789
  H       35.702      68.905     -28.609
  H       41.143      74.441     -26.560
  H       35.135      67.667     -27.470
  P       38.606      64.709     -25.771
  C       36.820      63.276     -26.988
  O       37.213      63.921     -25.796
  O       38.502      65.526     -24.391
  O       39.851      63.884     -25.779
  H       38.929      65.007     -23.683
  H       35.856      62.789     -26.820
  H       37.549      62.513     -27.270
  H       36.708      64.002     -27.798
  H       32.071      70.579     -26.617
  H       33.168      71.285     -25.455
  H       33.267      69.580     -25.827

 3  4  5  6  7  8  9  10  11  12  13  23  27  28  29  30  32 0
 6-311+G(2d,p)
 ****
 34  35 0
 6-311+G(2d,p)
 ****
 1  2  14  15  16  17  18  19  20  21  22  24  25  26 0
 3-21G
 ****
 31  33  36  37  38  39  40  41  42  43  44  45  46 0
 3-21G
 ****


