%nproc=1
%NoSave
%Mem=1900MB
#P OB98/GEN NMR

erre ene a

0 1
  C       73.760    -116.006     201.135
  O       72.827    -115.002     201.497
  P       72.048    -115.064     202.900
  C       73.383    -113.133     203.982
  O       73.101    -114.526     203.982
  C       72.805    -112.487     205.237
  O       71.367    -112.515     205.179
  C       73.181    -113.187     206.538
  O       74.515    -112.884     206.915
  C       72.098    -112.659     207.472
  O       72.429    -111.336     207.922
  C       70.873    -112.602     206.536
  N       69.981    -113.744     206.700
  C       69.142    -113.725     207.819
  O       69.159    -112.782     208.608
  N       68.267    -114.767     208.002
  C       68.246    -115.752     207.159
  N       67.313    -116.723     207.352
  C       69.152    -115.838     205.998
  C       69.979    -114.810     205.829
  O       71.443    -116.387     203.224
  O       70.990    -113.871     202.825
  H       71.691    -111.040     208.491
  H       70.126    -114.134     202.421
  H       69.107    -116.687     205.331
  H       70.662    -114.788     204.990
  H       70.304    -111.682     206.713
  H       71.942    -113.285     208.357
  H       73.077    -114.273     206.431
  H       73.127    -111.436     205.262
  H       66.603    -116.535     208.052
  H       72.915    -112.683     203.099
  H       67.042    -117.351     206.607
  H       74.465    -112.984     203.922
  P       75.196    -113.807     208.035
  C       75.783    -115.510     206.170
  O       75.190    -115.298     207.438
  O       74.102    -113.838     209.200
  O       76.522    -113.316     208.515
  H       74.351    -113.224     209.916
  H       75.907    -116.585     206.021
  H       76.763    -115.032     206.113
  H       75.130    -115.121     205.384
  H       74.167    -115.784     200.171
  H       73.268    -116.956     201.105
  H       74.549    -116.036     201.857

 3  4  5  6  7  8  9  10  11  12  13  23  27  28  29  30  32 0
 6-311+G(2d,p)
 ****
 34  35 0
 6-311+G(2d,p)
 ****
 1  2  14  15  16  17  18  19  20  21  22  24  25  26 0
 3-21G
 ****
 31  33  36  37  38  39  40  41  42  43  44  45  46 0
 3-21G
 ****


