%nproc=1
%NoSave
%Mem=1900MB
#P OB98/GEN NMR

erre ene a

0 1
  C      -28.001    -444.912     485.481
  O      -28.683    -446.145     485.349
  H      -28.162    -444.498     486.481
  H      -26.931    -445.080     485.335
  H      -28.353    -444.203     484.725
  P      -30.272    -446.122     485.567
  C      -32.337    -445.447     484.149
  O      -30.919    -445.540     484.212
  C      -32.759    -444.784     482.835
  O      -32.364    -443.387     482.882
  C      -32.140    -445.411     481.573
  O      -33.171    -445.850     480.684
  C      -31.384    -444.271     480.915
  O      -31.513    -444.254     479.488
  C      -32.000    -443.025     481.545
  N      -29.619    -439.621     478.583
  C      -30.751    -440.333     478.396
  N      -31.392    -441.140     479.264
  C      -30.757    -441.162     480.450
  C      -29.611    -440.474     480.801
  C      -29.021    -439.685     479.796
  N      -27.830    -439.005     479.971
  N      -29.248    -440.751     482.106
  C      -30.140    -441.625     482.521
  N      -31.062    -441.917     481.552
  O      -30.478    -444.934     486.622
  O      -30.865    -447.402     486.052
  H      -31.181    -443.388     479.189
  H      -31.072    -445.230     487.339
  H      -31.203    -440.245     477.404
  H      -30.145    -442.110     483.495
  H      -32.909    -442.700     481.021
  H      -30.322    -444.354     481.158
  H      -31.469    -446.250     481.804
  H      -33.850    -444.809     482.772
  H      -32.703    -444.839     484.982
  H      -27.422    -438.564     479.161
  H      -27.319    -439.135     480.835
  H      -32.767    -446.451     484.231
  P      -33.383    -447.439     480.550
  C      -32.807    -448.928     482.612
  O      -33.711    -448.004     482.016
  O      -31.899    -447.976     480.273
  O      -34.331    -447.835     479.472
  H      -31.936    -448.812     479.773
  H      -33.167    -449.205     483.581
  H      -31.843    -448.473     482.707
  H      -32.731    -449.800     481.997

 6  7  8  9  10  11  12  13  14  15  25  28  32  33  34  35 0
 6-311+G(2d,p)
 ****
 36  39  40 0
 6-311+G(2d,p)
 ****
 1  2  3  4  5  16  17  18  19  20  21  22  23  24 0
 3-21G
 ****
 26  27  29  30  31  37  38  41  42  43  44  45  46  47  48 0
 3-21G
 ****


