%nproc=1
%NoSave
%Mem=1900MB
#P OB98/GEN NMR

erre ene a

0 1
  C      -50.523    -149.639     143.037
  O      -50.895    -149.395     141.693
  H      -51.430    -149.777     143.630
  H      -49.968    -148.786     143.434
  H      -49.915    -150.546     143.099
  P      -49.695    -149.186     140.646
  C      -47.862    -150.766     139.722
  O      -48.890    -150.573     140.688
  C      -46.902    -151.865     140.177
  O      -46.214    -151.469     141.376
  C      -47.576    -153.192     140.504
  O      -47.835    -153.931     139.321
  C      -46.502    -153.851     141.357
  O      -45.480    -154.409     140.506
  C      -45.930    -152.665     142.153
  N      -45.008    -150.895     146.883
  C      -44.201    -151.057     145.811
  N      -44.504    -151.572     144.602
  C      -45.794    -151.944     144.550
  C      -46.739    -151.836     145.563
  C      -46.303    -151.274     146.774
  N      -47.134    -151.100     147.860
  N      -47.961    -152.321     145.145
  C      -47.770    -152.664     143.887
  N      -46.467    -152.488     143.492
  O      -48.890    -147.946     140.824
  O      -50.484    -149.292     139.255
  H      -45.257    -153.736     139.835
  H      -51.172    -149.977     139.303
  H      -43.175    -150.728     145.944
  H      -48.544    -153.026     143.219
  H      -44.842    -152.735     142.261
  H      -46.897    -154.672     141.959
  H      -48.475    -153.046     141.111
  H      -46.144    -151.992     139.393
  H      -47.312    -149.835     139.559
  H      -46.704    -150.851     148.740
  H      -48.063    -151.496     147.820
  H      -48.345    -151.052     138.782
  P      -48.850    -155.173     139.343
  C      -51.256    -155.581     140.157
  O      -50.137    -154.701     140.179
  O      -48.258    -156.464     139.794
  O      -49.405    -155.267     137.847
  H      -49.507    -156.199     137.578
  H      -52.048    -155.165     140.744
  H      -50.972    -156.530     140.562
  H      -51.589    -155.709     139.148

 6  7  8  9  10  11  12  13  14  15  25  28  32  33  34  35 0
 6-311+G(2d,p)
 ****
 36  39  40 0
 6-311+G(2d,p)
 ****
 1  2  3  4  5  16  17  18  19  20  21  22  23  24 0
 3-21G
 ****
 26  27  29  30  31  37  38  41  42  43  44  45  46  47 0
 3-21G
 ****
 48 0
 3-21G
 ****


