%nproc=1
%NoSave
%Mem=1900MB
#P OB98/GEN NMR

erre ene a

0 1
  C     -269.605     576.912    -168.327
  O     -270.285     577.380    -169.479
  P     -271.277     578.640    -169.400
  C     -270.039     579.631    -171.424
  O     -270.469     579.844    -170.086
  C     -270.644     580.689    -172.344
  O     -270.115     581.980    -171.965
  C     -270.317     580.544    -173.831
  O     -271.163     579.649    -174.538
  C     -270.575     581.966    -174.314
  O     -271.989     582.179    -174.471
  C     -270.039     582.806    -173.152
  N     -267.038     586.477    -175.074
  C     -268.383     586.356    -174.992
  N     -269.107     585.340    -174.482
  C     -268.299     584.391    -173.986
  C     -266.914     584.373    -173.990
  C     -266.276     585.482    -174.568
  N     -264.903     585.611    -174.632
  N     -266.437     583.220    -173.401
  C     -267.519     582.560    -173.036
  N     -268.666     583.230    -173.358
  O     -271.823     578.911    -168.044
  O     -272.415     578.313    -170.475
  H     -272.308     581.519    -175.111
  H     -273.193     578.880    -170.318
  H     -268.955     587.190    -175.395
  H     -267.518     581.598    -172.543
  H     -270.645     583.700    -172.966
  H     -270.110     582.176    -175.282
  H     -269.259     580.297    -173.984
  H     -271.728     580.707    -172.184
  H     -270.382     578.641    -171.740
  H     -264.535     586.494    -174.942
  H     -264.341     584.953    -174.109
  H     -268.947     579.648    -171.468
  P     -270.465     578.679    -175.615
  C     -270.988     576.567    -174.162
  O     -270.022     577.374    -174.795
  O     -269.395     579.322    -176.427
  O     -271.711     578.163    -176.484
  H     -272.335     577.589    -176.012
  H     -270.506     575.655    -173.803
  H     -271.783     576.289    -174.856
  H     -271.416     577.097    -173.304
  H     -268.998     576.071    -168.588
  H     -270.319     576.620    -167.585
  H     -268.985     577.692    -167.937

 3  4  5  6  7  8  9  10  11  12  22  25  29  30  31  32 0
 6-311+G(2d,p)
 ****
 33  36  37 0
 6-311+G(2d,p)
 ****
 1  2  13  14  15  16  17  18  19  20  21  23  24  26 0
 3-21G
 ****
 27  28  34  35  38  39  40  41  42  43  44  45  46  47  48 0
 3-21G
 ****


