%nproc=1
%NoSave
%Mem=1900MB
#P OB98/GEN NMR

erre ene a

0 1
  C       47.804     -21.231     -20.186
  O       47.788     -20.562     -18.919
  P       48.755     -19.324     -18.595
  C       46.814     -17.630     -18.599
  O       48.078     -17.981     -19.155
  C       46.758     -16.149     -18.212
  O       46.977     -15.311     -19.363
  C       45.428     -15.703     -17.612
  O       45.335     -16.093     -16.256
  C       45.487     -14.196     -17.847
  O       46.282     -13.560     -16.832
  C       46.190     -14.115     -19.208
  N       45.803     -13.919     -24.303
  C       46.860     -14.110     -23.484
  N       46.884     -14.144     -22.135
  C       45.647     -13.980     -21.636
  C       44.475     -13.770     -22.346
  C       44.582     -13.740     -23.747
  N       43.506     -13.530     -24.578
  N       43.405     -13.618     -21.490
  C       43.920     -13.752     -20.283
  N       45.269     -13.971     -20.320
  O       50.170     -19.522     -19.028
  O       48.669     -19.146     -17.006
  H       46.200     -12.597     -16.959
  H       49.499     -18.757     -16.674
  H       47.817     -14.254     -23.980
  H       43.359     -13.701     -19.360
  H       46.890     -13.272     -19.252
  H       44.499     -13.727     -17.831
  H       44.597     -16.127     -18.187
  H       47.577     -15.956     -17.508
  H       46.645     -18.248     -17.710
  H       43.672     -13.489     -25.571
  H       42.600     -13.349     -24.170
  H       46.035     -17.852     -19.336
  P       44.395     -17.318     -15.834
  C       46.012     -19.244     -16.337
  O       44.828     -18.576     -16.729
  O       42.931     -17.029     -15.810
  O       44.930     -17.723     -14.379
  H       44.195     -18.097     -13.859
  H       46.881     -18.688     -16.699
  H       46.016     -20.241     -16.786
  H       46.064     -19.344     -15.250
  H       47.082     -22.021     -20.181
  H       48.778     -21.638     -20.362
  H       47.564     -20.533     -20.961

 3  4  5  6  7  8  9  10  11  12  22  25  29  30  31  32 0
 6-311+G(2d,p)
 ****
 33  36  37 0
 6-311+G(2d,p)
 ****
 1  2  13  14  15  16  17  18  19  20  21  23  24  26 0
 3-21G
 ****
 27  28  34  35  38  39  40  41  42  43  44  45  46  47  48 0
 3-21G
 ****


