%nproc=1
%NoSave
%Mem=1900MB
#P OB98/GEN NMR

erre ene a

0 1
  C      949.017     509.653    -491.240
  O      949.256     508.367    -491.772
  H      949.976     510.104    -490.979
  H      948.401     509.590    -490.334
  H      948.523     510.283    -491.984
  P      947.991     507.443    -492.130
  C      948.923     507.246    -494.544
  O      948.495     506.556    -493.380
  C      949.282     506.251    -495.650
  O      950.518     505.556    -495.343
  C      948.250     505.141    -495.865
  O      947.079     505.583    -496.533
  C      949.082     504.183    -496.715
  O      949.166     504.690    -498.055
  C      950.454     504.267    -496.002
  N      950.653     503.186    -495.022
  C      950.763     501.891    -495.537
  O      950.700     501.684    -496.745
  N      950.913     500.840    -494.661
  C      950.933     501.073    -493.371
  N      951.024     499.988    -492.549
  C      950.829     502.423    -492.795
  C      950.694     503.436    -493.663
  O      946.689     508.145    -492.323
  O      947.954     506.346    -490.958
  H      949.558     503.988    -498.606
  H      947.181     505.755    -491.127
  H      950.844     502.561    -491.725
  H      950.597     504.442    -493.314
  H      951.272     504.233    -496.732
  H      948.653     503.172    -496.769
  H      948.007     504.651    -494.913
  H      949.452     506.830    -496.564
  H      951.052     499.079    -492.981
  H      949.790     507.866    -494.272
  H      950.772     500.060    -491.567
  H      948.126     507.893    -494.914
  P      945.702     504.797    -496.229
  C      944.483     507.085    -496.041
  O      944.516     505.790    -496.625
  O      945.662     504.754    -494.634
  O      945.595     503.436    -496.861
  H      946.044     503.923    -494.298
  H      943.632     507.620    -496.408
  H      945.376     507.615    -496.298
  H      944.416     506.995    -494.977

 6  7  8  9  10  11  12  13  14  15  16  26  30  31  32  33  35 0
 6-311+G(2d,p)
 ****
 37  38 0
 6-311+G(2d,p)
 ****
 1  2  3  4  5  17  18  19  20  21  22  23  24  25 0
 3-21G
 ****
 27  28  29  34  36  39  40  41  42  43  44  45  46 0
 3-21G
 ****


