%nproc=1
%NoSave
%Mem=1900MB
#P OB98/GEN NMR

erre ene a

0 1
  C     -606.767    -172.751      -0.507
  O     -606.303    -173.350      -1.727
  P     -607.367    -174.196      -2.583
  C     -607.055    -172.547      -4.591
  O     -607.944    -173.177      -3.684
  C     -607.680    -171.250      -5.123
  O     -607.913    -170.316      -4.033
  C     -606.815    -170.505      -6.122
  O     -606.816    -171.139      -7.395
  C     -607.471    -169.128      -6.098
  O     -608.647    -169.124      -6.920
  C     -607.863    -168.990      -4.607
  N     -606.977    -168.115      -3.862
  C     -607.518    -166.899      -3.445
  O     -608.667    -166.557      -3.710
  N     -606.681    -166.083      -2.739
  C     -605.376    -166.341      -2.435
  O     -604.670    -165.576      -1.787
  C     -604.839    -167.615      -2.941
  C     -605.655    -168.433      -3.616
  O     -608.559    -174.356      -1.526
  O     -606.805    -175.476      -3.107
  H     -608.663    -173.581      -0.955
  H     -608.333    -169.164      -7.847
  H     -607.059    -165.205      -2.422
  H     -603.798    -167.847      -2.746
  H     -605.273    -169.376      -4.005
  H     -608.884    -168.581      -4.531
  H     -606.808    -168.340      -6.465
  H     -605.785    -170.429      -5.746
  H     -608.652    -171.505      -5.569
  H     -606.842    -173.207      -5.433
  H     -606.103    -172.343      -4.085
  P     -605.648    -172.210      -7.667
  C     -607.366    -174.110      -8.183
  O     -606.270    -173.653      -7.411
  O     -604.706    -171.967      -6.391
  O     -604.961    -172.024      -8.981
  H     -605.195    -171.881      -5.559
  H     -607.426    -175.198      -8.113
  H     -607.246    -173.827      -9.236
  H     -608.298    -173.686      -7.797
  H     -605.962    -172.221      -0.041
  H     -607.121    -173.515       0.153
  H     -607.563    -172.070      -0.724

 3  4  5  6  7  8  9  10  11  12  13  24  28  29  30  31  32 0
 6-311+G(2d,p)
 ****
 33  34 0
 6-311+G(2d,p)
 ****
 1  2  14  15  16  17  18  19  20  21  22  23  25  26  27 0
 3-21G
 ****
 35  36  37  38  39  40  41  42  43  44  45 0
 3-21G
 ****


