%nproc=1
%NoSave
%Mem=1900MB
#P OB98/GEN NMR

erre ene a

0 1
  C     -183.602     -35.540     267.769
  O     -184.515     -36.550     268.167
  P     -185.510     -36.318     269.395
  C     -184.467     -37.922     271.197
  O     -184.719     -36.604     270.749
  C     -184.532     -37.949     272.729
  O     -183.424     -37.212     273.286
  C     -185.826     -37.322     273.243
  O     -186.808     -38.319     273.472
  C     -185.371     -36.621     274.513
  O     -185.290     -37.557     275.603
  C     -183.957     -36.139     274.111
  N     -183.842     -34.876     273.348
  C     -184.006     -33.659     274.004
  O     -184.210     -33.554     275.209
  N     -183.946     -32.544     273.205
  C     -183.701     -32.533     271.864
  O     -183.891     -31.571     271.128
  C     -183.276     -33.814     271.289
  C     -183.387     -34.912     272.039
  O     -186.513     -37.557     269.287
  O     -186.234     -35.013     269.400
  H     -185.156     -38.442     275.218
  H     -187.344     -37.295     268.843
  H     -184.199     -31.670     273.653
  H     -182.937     -33.828     270.261
  H     -183.110     -35.879     271.622
  H     -183.312     -36.043     274.992
  H     -186.087     -35.860     274.820
  H     -186.190     -36.562     272.536
  H     -184.451     -38.991     273.069
  H     -183.478     -38.254     270.850
  H     -185.205     -38.612     270.773
  P     -188.307     -37.887     273.834
  C     -188.102     -37.955     276.386
  O     -188.195     -37.133     275.244
  O     -189.327     -38.970     273.761
  O     -188.611     -36.714     272.782
  H     -189.116     -37.072     272.022
  H     -187.854     -37.341     277.252
  H     -187.319     -38.714     276.252
  H     -189.062     -38.453     276.571
  H     -183.029     -35.886     266.935
  H     -182.946     -35.312     268.583
  H     -184.143     -34.660     267.489

 3  4  5  6  7  8  9  10  11  12  13  23  28  29  30  31  32 0
 6-311+G(2d,p)
 ****
 33  34 0
 6-311+G(2d,p)
 ****
 1  2  14  15  16  17  18  19  20  21  22  24  25  26  27 0
 3-21G
 ****
 35  36  37  38  39  40  41  42  43  44  45 0
 3-21G
 ****


