%nproc=1
%NoSave
%Mem=1900MB
#P OB98/GEN NMR

erre ene a

0 1
  C     -191.325    -480.604    -273.299
  O     -191.357    -481.874    -273.910
  H     -190.374    -480.500    -272.768
  H     -192.136    -480.508    -272.571
  H     -191.397    -479.811    -274.047
  P     -192.665    -482.321    -274.730
  C     -193.179    -483.917    -272.782
  O     -193.690    -482.886    -273.620
  C     -194.269    -484.464    -271.860
  O     -194.758    -483.400    -271.000
  C     -195.483    -485.045    -272.604
  O     -195.835    -486.315    -272.040
  C     -196.594    -484.042    -272.322
  O     -197.897    -484.607    -272.424
  C     -196.187    -483.553    -270.926
  N     -196.862    -482.314    -270.566
  C     -198.230    -482.419    -270.269
  O     -198.793    -483.519    -270.319
  N     -198.937    -481.279    -269.983
  C     -198.340    -480.125    -270.036
  N     -199.107    -479.035    -269.763
  C     -196.906    -479.964    -270.373
  C     -196.238    -481.091    -270.612
  O     -192.403    -483.247    -275.874
  O     -193.358    -480.947    -275.178
  H     -197.962    -485.365    -271.802
  H     -193.937    -481.124    -275.956
  H     -196.467    -478.981    -270.404
  H     -195.183    -481.070    -270.869
  H     -196.411    -484.310    -270.161
  H     -196.521    -483.216    -273.043
  H     -195.316    -485.161    -273.675
  H     -193.822    -485.214    -271.194
  H     -200.085    -479.184    -269.552
  H     -192.348    -483.518    -272.200
  H     -198.759    -478.083    -269.805
  H     -192.818    -484.731    -273.422
  P     -194.956    -487.570    -272.530
  C     -196.765    -489.196    -273.461
  O     -195.727    -488.267    -273.760
  O     -195.115    -488.620    -271.334
  O     -193.524    -487.233    -272.787
  H     -194.271    -488.705    -270.849
  H     -197.180    -489.572    -274.372
  H     -197.530    -488.706    -272.896
  H     -196.364    -490.007    -272.890

 6  7  8  9  10  11  12  13  14  15  16  26  30  31  32  33  35 0
 6-311+G(2d,p)
 ****
 37  38 0
 6-311+G(2d,p)
 ****
 1  2  3  4  5  17  18  19  20  21  22  23  24  25 0
 3-21G
 ****
 27  28  29  34  36  39  40  41  42  43  44  45  46 0
 3-21G
 ****


