%nproc=1
%NoSave
%Mem=1900MB
#P OB98/GEN NMR

erre ene a

0 1
  C     -208.721     -24.609     120.168
  O     -207.643     -23.724     119.920
  P     -206.393     -23.639     120.919
  C     -206.492     -21.070     120.769
  O     -206.530     -22.203     121.633
  C     -207.623     -20.110     121.120
  O     -208.864     -20.861     121.178
  C     -207.517     -19.412     122.477
  O     -206.714     -18.247     122.479
  C     -208.967     -19.023     122.719
  O     -209.288     -17.847     121.952
  C     -209.726     -20.239     122.162
  N     -213.150     -21.533     125.742
  C     -213.117     -20.525     124.845
  N     -212.157     -20.230     123.933
  C     -211.179     -21.145     123.979
  C     -211.072     -22.231     124.840
  C     -212.126     -22.413     125.753
  N     -212.165     -23.458     126.651
  N     -209.904     -22.937     124.598
  C     -209.322     -22.283     123.605
  N     -210.057     -21.204     123.197
  O     -205.073     -23.928     120.292
  O     -206.757     -24.658     122.095
  H     -208.739     -17.120     122.304
  H     -205.953     -24.875     122.614
  H     -213.975     -19.852     124.854
  H     -208.386     -22.558     123.171
  H     -210.659     -19.956     121.652
  H     -209.180     -18.797     123.765
  H     -207.200     -20.119     123.261
  H     -207.717     -19.368     120.308
  H     -206.625     -21.415     119.735
  H     -213.017     -23.590     127.178
  H     -211.491     -24.203     126.550
  H     -205.519     -20.576     120.841
  P     -205.328     -18.308     123.302
  C     -206.711     -17.121     125.180
  O     -205.727     -18.073     124.836
  O     -204.252     -17.415     122.771
  O     -204.951     -19.871     123.256
  H     -205.552     -20.451     123.745
  H     -206.955     -17.231     126.244
  H     -207.624     -17.276     124.602
  H     -206.335     -16.111     125.012
  H     -209.448     -24.513     119.389
  H     -209.172     -24.367     121.108
  H     -208.358     -25.615     120.195

 3  4  5  6  7  8  9  10  11  12  22  25  29  30  31  32 0
 6-311+G(2d,p)
 ****
 33  36  37 0
 6-311+G(2d,p)
 ****
 1  2  13  14  15  16  17  18  19  20  21  23  24  26 0
 3-21G
 ****
 27  28  34  35  38  39  40  41  42  43  44  45  46  47  48 0
 3-21G
 ****


