%nproc=1
%NoSave
%Mem=1900MB
#P OB98/GEN NMR

erre ene a

0 1
  C     1404.542     -14.586    -450.270
  O     1403.741     -13.829    -451.165
  H     1404.361     -15.653    -450.464
  H     1404.259     -14.363    -449.235
  H     1405.602     -14.363    -450.426
  P     1404.002     -12.243    -451.223
  C     1404.635     -12.322    -453.743
  O     1403.750     -11.805    -452.752
  C     1403.811     -12.850    -454.930
  O     1403.344     -14.204    -454.596
  C     1402.581     -11.997    -455.266
  O     1402.391     -12.002    -456.679
  C     1401.442     -12.787    -454.614
  O     1400.163     -12.517    -455.176
  C     1401.917     -14.226    -454.823
  N     1401.258     -15.163    -453.919
  C     1399.925     -15.457    -454.158
  O     1399.268     -15.053    -455.117
  N     1399.329     -16.285    -453.229
  C     1399.900     -16.801    -452.114
  O     1399.299     -17.504    -451.314
  C     1401.308     -16.444    -451.914
  C     1401.935     -15.669    -452.810
  O     1405.592     -12.141    -451.054
  O     1403.272     -11.437    -450.212
  H     1405.838     -12.069    -450.107
  H     1399.522     -13.138    -454.762
  H     1398.339     -16.492    -453.400
  H     1401.817     -16.834    -451.024
  H     1402.965     -15.377    -452.687
  H     1401.755     -14.527    -455.857
  H     1401.395     -12.554    -453.552
  H     1402.628     -10.976    -454.902
  H     1404.480     -12.944    -455.799
  H     1405.214     -13.151    -453.316
  H     1405.311     -11.534    -454.077
  P     1401.456     -10.848    -457.308
  C     1403.507      -9.707    -458.458
  O     1402.243     -10.353    -458.608
  O     1401.648      -9.687    -456.232
  O     1400.046     -11.312    -457.528
  H     1402.542      -9.672    -455.863
  H     1403.890      -9.444    -459.422
  H     1404.191     -10.370    -457.971
  H     1403.388      -8.822    -457.868

 6  7  8  9  10  11  12  13  14  15  16  27  31  32  33  34  35 0
 6-311+G(2d,p)
 ****
 36  37 0
 6-311+G(2d,p)
 ****
 1  2  3  4  5  17  18  19  20  21  22  23  24  25 0
 3-21G
 ****
 26  28  29  30  38  39  40  41  42  43  44  45 0
 3-21G
 ****


