%nproc=1
%NoSave
%Mem=1900MB
#P OB98/GEN NMR

erre ene a

0 1
  C     -243.213     297.280      22.663
  O     -244.439     297.659      23.256
  H     -242.855     298.072      22.001
  H     -242.473     297.118      23.452
  H     -243.337     296.352      22.099
  P     -245.656     297.983      22.262
  C     -246.040     299.597      20.267
  O     -245.198     299.228      21.351
  C     -246.088     301.116      20.136
  O     -247.093     301.621      21.056
  C     -244.760     301.829      20.442
  O     -244.344     302.611      19.318
  C     -245.091     302.776      21.590
  O     -244.465     304.050      21.466
  C     -246.613     302.887      21.525
  N     -246.738     306.392      25.226
  C     -246.430     306.489      23.916
  N     -246.517     305.543      22.958
  C     -247.010     304.397      23.470
  C     -247.389     304.152      24.777
  C     -247.220     305.212      25.687
  N     -247.483     305.096      27.034
  N     -247.838     302.852      24.923
  C     -247.687     302.308      23.733
  N     -247.171     303.198      22.826
  O     -246.765     298.617      23.231
  O     -246.187     296.809      21.506
  H     -244.967     304.546      20.790
  H     -247.629     298.194      23.060
  H     -246.053     307.455      23.590
  H     -247.890     301.273      23.483
  H     -246.941     303.658      20.818
  H     -244.763     302.320      22.533
  H     -243.960     301.133      20.727
  H     -246.428     301.365      19.123
  H     -247.055     299.220      20.446
  H     -247.222     305.868      27.631
  H     -247.736     304.190      27.402
  H     -245.659     299.138      19.347
  P     -243.142     302.014      18.429
  C     -240.581     301.658      18.750
  O     -241.785     302.209      19.268
  O     -243.002     303.086      17.250
  O     -243.393     300.638      17.911
  H     -242.633     302.660      16.453
  H     -239.774     301.872      19.419
  H     -240.374     302.089      17.793
  H     -240.689     300.598      18.648

 6  7  8  9  10  11  12  13  14  15  25  28  32  33  34  35 0
 6-311+G(2d,p)
 ****
 36  39  40 0
 6-311+G(2d,p)
 ****
 1  2  3  4  5  16  17  18  19  20  21  22  23  24 0
 3-21G
 ****
 26  27  29  30  31  37  38  41  42  43  44  45  46  47  48 0
 3-21G
 ****


