%nproc=1
%NoSave
%Mem=1900MB
#P OB98/GEN NMR

erre ene a

0 1
  C      -78.945    -172.048     -28.423
  O      -79.402    -171.501     -29.640
  H      -79.246    -171.379     -27.609
  H      -77.856    -172.130     -28.417
  H      -79.397    -173.029     -28.250
  P      -78.938    -172.181     -31.022
  C      -79.469    -174.692     -30.913
  O      -79.969    -173.403     -31.249
  C      -80.513    -175.782     -31.162
  O      -81.695    -175.516     -30.361
  C      -80.963    -175.888     -32.627
  O      -80.963    -177.262     -33.025
  C      -82.384    -175.341     -32.609
  O      -83.167    -175.836     -33.693
  C      -82.840    -175.754     -31.205
  N      -84.013    -175.016     -30.744
  C      -85.263    -175.562     -31.067
  O      -85.330    -176.596     -31.736
  N      -86.395    -174.911     -30.657
  C      -86.297    -173.778     -30.031
  N      -87.462    -173.177     -29.660
  C      -85.003    -173.139     -29.710
  C      -83.914    -173.810     -30.088
  O      -77.496    -172.562     -31.075
  O      -79.367    -171.132     -32.150
  H      -84.092    -175.522     -33.577
  H      -78.850    -171.309     -32.974
  H      -84.973    -172.192     -29.194
  H      -82.917    -173.421     -29.886
  H      -83.072    -176.830     -31.171
  H      -82.356    -174.246     -32.683
  H      -80.330    -175.329     -33.315
  H      -80.109    -176.736     -30.800
  H      -88.327    -173.646     -29.896
  H      -79.166    -174.687     -29.859
  H      -87.505    -172.291     -29.174
  H      -78.590    -174.891     -31.539
  P      -80.029    -177.637     -34.280
  C      -77.954    -177.883     -32.743
  O      -78.780    -178.486     -33.728
  O      -79.385    -176.229     -34.683
  O      -80.771    -178.257     -35.418
  H      -79.850    -175.854     -35.454
  H      -77.170    -178.559     -32.473
  H      -78.540    -177.653     -31.878
  H      -77.529    -176.983     -33.136

 6  7  8  9  10  11  12  13  14  15  16  26  30  31  32  33  35 0
 6-311+G(2d,p)
 ****
 37  38 0
 6-311+G(2d,p)
 ****
 1  2  3  4  5  17  18  19  20  21  22  23  24  25 0
 3-21G
 ****
 27  28  29  34  36  39  40  41  42  43  44  45  46 0
 3-21G
 ****


