%nproc=1
%NoSave
%Mem=1900MB
#P OB98/GEN NMR

erre ene a

0 1
  C      135.396    -103.208      25.694
  O      134.603    -103.200      24.518
  P      134.918    -104.309      23.401
  C      135.748    -102.570      21.659
  O      136.064    -103.708      22.449
  C      136.861    -102.284      20.647
  O      138.109    -102.069      21.367
  C      137.107    -103.415      19.633
  O      137.481    -102.789      18.399
  C      138.282    -104.151      20.255
  O      138.971    -105.005      19.357
  C      139.086    -102.971      20.797
  N      143.867    -102.263      22.471
  C      143.158    -101.662      21.488
  N      141.886    -101.898      21.103
  C      141.333    -102.862      21.862
  C      141.934    -103.576      22.886
  C      143.267    -103.243      23.187
  N      143.990    -103.865      24.186
  N      141.063    -104.505      23.416
  C      139.953    -104.357      22.721
  N      140.060    -103.364      21.787
  O      133.615    -104.268      22.474
  O      135.186    -105.684      23.932
  H      139.854    -105.223      19.716
  H      133.361    -105.164      22.178
  H      143.685    -100.889      20.935
  H      139.054    -104.948      22.844
  H      139.613    -102.431      19.998
  H      137.915    -104.777      21.075
  H      136.228    -104.043      19.463
  H      136.621    -101.352      20.123
  H      135.643    -101.693      22.308
  H      144.986    -103.695      24.191
  H      143.606    -104.723      24.568
  H      134.790    -102.732      21.155
  P      137.264    -103.592      17.024
  C      139.775    -104.069      17.307
  O      138.510    -104.606      16.969
  O      137.704    -102.483      15.955
  O      135.904    -104.160      16.810
  H      138.571    -102.097      16.173
  H      140.507    -104.883      17.323
  H      139.740    -103.603      18.295
  H      140.079    -103.334      16.556
  H      135.077    -102.421      26.345
  H      136.423    -103.061      25.433
  H      135.286    -104.149      26.192

 3  4  5  6  7  8  9  10  11  12  22  25  29  30  31  32 0
 6-311+G(2d,p)
 ****
 33  36  37 0
 6-311+G(2d,p)
 ****
 1  2  13  14  15  16  17  18  19  20  21  23  24  26 0
 3-21G
 ****
 27  28  34  35  38  39  40  41  42  43  44  45  46  47  48 0
 3-21G
 ****


