%nproc=1
%NoSave
%Mem=1900MB
#P OB98/GEN NMR

erre ene a

0 1
  C      -82.371      99.656      11.765
  O      -81.444      99.899      10.723
  H      -82.602     100.605      12.256
  H      -81.945      98.974      12.505
  H      -83.296      99.236      11.362
  P      -80.941      98.653       9.851
  C      -79.399      96.637      10.329
  O      -79.782      97.952      10.709
  C      -78.147      96.215      11.090
  O      -77.035      97.058      10.733
  C      -78.288      96.300      12.610
  O      -78.967      95.159      13.110
  C      -76.826      96.354      13.019
  O      -76.247      95.037      12.930
  C      -76.234      97.269      11.931
  N      -73.667     101.099      14.040
  C      -73.345      99.757      13.950
  N      -72.193      99.378      14.545
  N      -74.093      98.868      13.349
  C      -75.246      99.382      12.864
  C      -75.683     100.687      12.906
  C      -74.821     101.673      13.523
  O      -75.060     102.874      13.611
  N      -76.937     100.817      12.365
  C      -77.242      99.598      11.962
  N      -76.254      98.687      12.254
  O      -80.548      98.949       8.434
  O      -82.147      97.606       9.934
  H      -76.705      94.487      13.592
  H      -82.763      97.716       9.187
  H      -73.057     101.730      14.532
  H      -78.158      99.323      11.453
  H      -75.199      97.008      11.684
  H      -76.677      96.708      14.039
  H      -71.740      99.951      15.247
  H      -78.771      97.233      12.922
  H      -71.965      98.392      14.533
  H      -77.891      95.194      10.777
  H      -79.207      96.647       9.250
  H      -80.210      95.930      10.534
  P      -80.048      95.289      14.291
  C      -79.883      95.820      16.816
  O      -79.181      95.489      15.625
  O      -81.044      94.180      14.355
  O      -80.700      96.733      14.083
  H      -81.479      96.730      13.474
  H      -79.188      95.923      17.623
  H      -80.583      95.043      17.045
  H      -80.407      96.742      16.676

 6  7  8  9  10  11  12  13  14  15  26  29  33  34 0
 6-311+G(2d,p)
 ****
 36  38  39  40  41 0
 6-311+G(2d,p)
 ****
 1  2  3  4  5  16  17  18  19  20  21  22  23  24  25 0
 3-21G
 ****
 27  28  30  31  32  35  37  42  43  44  45  46  47 0
 3-21G
 ****
 48  49 0
 3-21G
 ****


