%nproc=1
%NoSave
%Mem=1900MB
#P OB98/GEN NMR

erre ene a

0 1
  C      -62.065      20.306     -46.516
  O      -61.280      19.474     -45.687
  H      -62.887      19.716     -46.931
  H      -61.465      20.700     -47.340
  H      -62.482      21.131     -45.932
  P      -59.955      20.121     -45.057
  C      -58.095      18.561     -45.983
  O      -58.899      18.930     -44.870
  C      -57.119      17.464     -45.566
  O      -56.260      17.950     -44.506
  C      -57.789      16.219     -45.004
  O      -58.309      15.372     -46.014
  C      -56.631      15.583     -44.254
  O      -55.811      14.787     -45.122
  C      -55.861      16.806     -43.725
  N      -56.086      17.010     -42.296
  C      -55.110      16.489     -41.451
  O      -54.112      15.895     -41.856
  N      -55.337      16.642     -40.112
  C      -56.444      17.204     -39.547
  O      -56.611      17.259     -38.335
  C      -57.450      17.721     -40.489
  C      -57.231      17.598     -41.801
  O      -60.399      20.476     -43.560
  O      -59.432      21.315     -45.783
  H      -60.516      21.439     -43.471
  H      -56.422      14.180     -45.587
  H      -54.640      16.274     -39.483
  H      -58.344      18.171     -40.074
  H      -57.964      17.961     -42.515
  H      -54.782      16.677     -43.885
  H      -56.991      14.929     -43.464
  H      -58.568      16.499     -44.284
  H      -56.491      17.209     -46.429
  H      -57.525      19.429     -46.329
  H      -58.744      18.221     -46.796
  P      -59.890      15.415     -46.285
  C      -59.778      12.807     -46.618
  O      -60.233      14.068     -47.083
  O      -59.968      16.572     -47.387
  O      -60.690      15.660     -45.052
  H      -59.143      16.640     -47.899
  H      -60.110      12.040     -47.286
  H      -60.172      12.624     -45.640
  H      -58.709      12.806     -46.577

 6  7  8  9  10  11  12  13  14  15  16  27  31  32  33  34  35 0
 6-311+G(2d,p)
 ****
 36  37 0
 6-311+G(2d,p)
 ****
 1  2  3  4  5  17  18  19  20  21  22  23  24  25 0
 3-21G
 ****
 26  28  29  30  38  39  40  41  42  43  44  45 0
 3-21G
 ****


