%nproc=1
%NoSave
%Mem=1900MB
#P OB98/GEN NMR

erre ene a

0 1
  C     -159.000     857.754     446.608
  O     -159.263     857.820     445.210
  P     -159.545     856.457     444.415
  C     -161.861     856.613     443.139
  O     -160.460     856.753     443.135
  C     -162.294     855.867     441.863
  O     -163.703     855.517     441.944
  C     -162.114     856.687     440.594
  O     -160.799     856.549     440.057
  C     -163.195     856.110     439.690
  O     -162.774     854.853     439.147
  C     -164.343     855.906     440.701
  N     -165.245     857.057     440.980
  C     -166.618     856.929     440.735
  O     -167.145     855.920     440.284
  N     -167.373     858.027     441.033
  C     -166.964     859.151     441.692
  O     -167.702     860.078     441.985
  C     -165.540     859.167     442.064
  C     -164.762     858.139     441.688
  O     -160.519     855.642     445.393
  O     -158.323     855.675     444.066
  H     -162.675     854.235     439.891
  H     -160.080     854.830     445.703
  H     -168.360     857.989     440.786
  H     -165.178     860.019     442.630
  H     -163.705     858.151     441.954
  H     -164.985     855.072     440.389
  H     -163.383     856.765     438.844
  H     -162.349     857.737     440.776
  H     -161.721     854.932     441.797
  H     -162.353     857.587     443.186
  H     -162.178     856.053     444.026
  P     -160.019     857.842     439.537
  C     -158.891     859.164     441.421
  O     -158.797     858.056     440.555
  O     -160.864     859.058     439.262
  O     -159.282     857.315     438.209
  H     -159.809     857.526     437.405
  H     -158.099     859.112     442.170
  H     -159.864     859.158     441.938
  H     -158.790     860.097     440.854
  H     -158.834     858.741     446.987
  H     -158.130     857.155     446.779
  H     -159.839     857.317     447.108

 3  4  5  6  7  8  9  10  11  12  13  23  28  29  30  31  32 0
 6-311+G(2d,p)
 ****
 33  34 0
 6-311+G(2d,p)
 ****
 1  2  14  15  16  17  18  19  20  21  22  24  25  26  27 0
 3-21G
 ****
 35  36  37  38  39  40  41  42  43  44  45 0
 3-21G
 ****


