%nproc=1
%NoSave
%Mem=1900MB
#P OB98/GEN NMR

erre ene a

0 1
  C     -395.602    -495.862     104.495
  O     -394.407    -495.364     105.084
  P     -394.543    -494.064     106.013
  C     -395.061    -491.554     105.521
  O     -394.639    -492.812     105.029
  C     -395.222    -490.561     104.372
  O     -396.004    -491.158     103.307
  C     -395.925    -489.268     104.748
  O     -395.020    -488.379     105.363
  C     -396.444    -488.801     103.393
  O     -395.394    -488.140     102.646
  C     -396.851    -490.122     102.722
  N     -401.545    -489.245     101.065
  C     -400.370    -488.595     100.772
  N     -400.439    -487.583      99.876
  N     -399.208    -488.902     101.313
  C     -399.290    -489.922     102.199
  C     -400.400    -490.635     102.590
  C     -401.656    -490.324     101.939
  O     -402.711    -490.939     102.091
  N     -400.091    -491.582     103.534
  C     -398.786    -491.456     103.687
  N     -398.241    -490.472     102.894
  O     -393.089    -493.940     106.674
  O     -395.627    -494.127     107.046
  H     -395.226    -487.269     103.055
  H     -393.078    -494.319     107.574
  H     -402.396    -488.989     100.602
  H     -398.188    -492.061     104.348
  H     -396.650    -490.119     101.650
  H     -397.260    -488.077     103.492
  H     -401.292    -487.269      99.439
  H     -396.778    -489.478     105.416
  H     -399.581    -487.085      99.662
  H     -394.222    -490.364     103.970
  H     -394.315    -491.179     106.224
  H     -396.020    -491.680     106.068
  P     -395.633    -487.204     106.271
  C     -397.446    -485.391     105.878
  O     -396.482    -486.245     105.304
  O     -394.357    -486.324     106.660
  O     -396.358    -487.680     107.490
  H     -394.452    -485.987     107.562
  H     -397.528    -484.485     105.253
  H     -397.164    -485.080     106.897
  H     -398.413    -485.887     105.917
  H     -395.376    -496.725     103.904
  H     -396.035    -495.107     103.873
  H     -396.295    -496.129     105.265

 3  4  5  6  7  8  9  10  11  12  23  26  30  31 0
 6-311+G(2d,p)
 ****
 33  35  36  37  38 0
 6-311+G(2d,p)
 ****
 1  2  13  14  15  16  17  18  19  20  21  22  24  25 0
 3-21G
 ****
 27  28  29  32  34  39  40  41  42  43  44  45  46  47  48  49 0
 3-21G
 ****


