%nproc=1
%NoSave
%Mem=1900MB
#P OB98/GEN NMR

erre ene a

0 1
  C       97.677     -82.574     185.902
  O       96.653     -82.137     185.030
  H       98.456     -81.812     185.971
  H       97.248     -82.734     186.894
  H       98.107     -83.516     185.547
  P       97.031     -82.010     183.475
  C       97.025     -84.535     182.860
  O       96.363     -83.284     182.758
  C       96.187     -85.637     182.209
  O       95.243     -86.147     183.189
  C       95.384     -85.158     180.994
  O       95.385     -86.186     180.003
  C       93.981     -84.975     181.549
  O       92.983     -85.083     180.540
  C       93.926     -86.075     182.605
  N       89.210     -87.174     184.223
  C       89.967     -87.688     183.232
  N       91.220     -87.342     182.869
  C       91.702     -86.389     183.686
  C       91.050     -85.767     184.737
  C       89.735     -86.191     184.994
  N       88.943     -85.646     185.980
  N       91.865     -84.810     185.316
  C       92.987     -84.858     184.623
  N       92.935     -85.792     183.627
  O       98.597     -82.358     183.477
  O       96.751     -80.689     182.845
  H       93.204     -84.454     179.821
  H       99.103     -81.572     183.757
  H       89.503     -88.477     182.646
  H       93.855     -84.236     184.795
  H       93.682     -87.057     182.178
  H       93.892     -83.985     182.012
  H       95.778     -84.237     180.563
  H       96.847     -86.471     181.943
  H       97.180     -84.772     183.918
  H       87.993     -85.972     186.058
  H       89.296     -84.871     186.525
  H       97.999     -84.470     182.361
  P       96.458     -86.048     178.818
  C       98.447     -87.111     180.095
  O       97.562     -87.201     178.988
  O       97.248     -84.706     179.190
  O       95.839     -85.958     177.459
  H       97.293     -84.119     178.412
  H       99.122     -87.941     180.080
  H       97.883     -87.126     181.004
  H       99.002     -86.198     180.035

 6  7  8  9  10  11  12  13  14  15  25  28  32  33  34  35 0
 6-311+G(2d,p)
 ****
 36  39  40 0
 6-311+G(2d,p)
 ****
 1  2  3  4  5  16  17  18  19  20  21  22  23  24 0
 3-21G
 ****
 26  27  29  30  31  37  38  41  42  43  44  45  46  47 0
 3-21G
 ****
 48 0
 3-21G
 ****


