%nproc=1
%NoSave
%Mem=1900MB
#P OB98/GEN NMR

erre ene a

0 1
  C      722.735    -850.021    -837.468
  O      721.429    -850.415    -837.837
  H      723.159    -849.435    -838.282
  H      723.347    -850.909    -837.319
  H      722.729    -849.413    -836.561
  P      720.453    -850.961    -836.697
  C      720.115    -853.461    -837.331
  O      720.788    -852.533    -836.486
  C      720.680    -854.865    -837.151
  O      720.451    -855.322    -835.796
  C      719.945    -855.850    -838.101
  O      720.778    -856.963    -838.458
  C      718.809    -856.371    -837.210
  O      718.289    -857.624    -837.645
  C      719.482    -856.407    -835.854
  N      715.461    -858.372    -833.385
  C      716.020    -858.767    -834.573
  N      715.424    -859.801    -835.230
  N      717.081    -858.180    -835.117
  C      717.525    -857.112    -834.405
  C      717.025    -856.606    -833.220
  C      715.893    -857.296    -832.615
  O      715.335    -856.974    -831.573
  N      717.732    -855.497    -832.799
  C      718.622    -855.326    -833.744
  N      718.557    -856.298    -834.730
  O      719.011    -851.032    -837.422
  O      720.378    -850.162    -835.425
  H      717.548    -857.845    -837.078
  H      718.302    -850.977    -836.768
  H      714.656    -858.857    -833.019
  H      719.377    -854.526    -833.745
  H      720.039    -857.341    -835.722
  H      717.984    -855.639    -837.266
  H      714.530    -860.163    -834.938
  H      719.589    -855.374    -838.986
  H      715.627    -859.901    -836.214
  H      721.763    -854.874    -837.298
  H      720.266    -853.122    -838.370
  H      719.044    -853.442    -837.130
  P      721.168    -857.103    -840.013
  C      720.136    -859.516    -840.308
  O      720.132    -858.142    -840.676
  O      722.551    -857.909    -839.959
  O      721.292    -855.797    -840.724
  H      723.299    -857.323    -840.164
  H      719.378    -860.035    -840.857
  H      719.941    -859.605    -839.260
  H      721.092    -859.942    -840.530

 6  7  8  9  10  11  12  13  14  15  26  29  33  34 0
 6-311+G(2d,p)
 ****
 36  38  39  40  41 0
 6-311+G(2d,p)
 ****
 1  2  3  4  5  16  17  18  19  20  21  22  23  24  25 0
 3-21G
 ****
 27  28  30  31  32  35  37  42  43  44  45  46  47 0
 3-21G
 ****
 48  49 0
 3-21G
 ****


