%nproc=1
%NoSave
%Mem=1900MB
#P OB98/GEN NMR

erre ene a

0 1
  C      464.326     200.098     406.085
  O      465.547     199.554     405.567
  P      465.605     198.164     404.762
  C      465.967     196.927     406.994
  O      466.387     197.082     405.645
  C      466.855     195.933     407.758
  O      466.730     194.615     407.190
  C      468.339     196.252     407.728
  O      468.654     197.317     408.606
  C      468.935     194.902     408.111
  O      468.923     194.721     409.541
  C      467.971     193.917     407.426
  N      468.517     193.369     406.190
  C      469.691     192.618     406.311
  O      470.246     192.486     407.402
  N      470.221     192.042     405.177
  C      469.670     192.270     404.022
  N      470.239     191.675     402.943
  C      468.489     193.133     403.845
  C      467.971     193.640     404.959
  O      466.113     198.299     403.363
  O      464.094     197.625     404.758
  H      467.998     194.848     409.829
  H      463.943     197.109     403.940
  H      468.081     193.319     402.865
  H      467.095     194.279     404.922
  H      467.730     193.086     408.098
  H      469.974     194.791     407.787
  H      468.644     196.504     406.702
  H      466.489     195.887     408.793
  H      471.045     191.085     403.095
  H      464.933     196.563     406.996
  H      469.887     191.783     401.998
  H      465.992     197.906     407.485
  P      468.598     198.827     408.080
  C      470.869     199.178     406.935
  O      470.093     199.402     408.099
  O      467.571     199.702     408.726
  O      468.305     198.668     406.510
  H      467.780     199.435     406.205
  H      471.670     199.924     406.900
  H      470.265     199.259     406.030
  H      471.316     198.181     406.991
  H      464.530     201.024     406.580
  H      463.895     199.409     406.781
  H      463.641     200.267     405.280

 3  4  5  6  7  8  9  10  11  12  13  23  27  28  29  30  32 0
 6-311+G(2d,p)
 ****
 34  35 0
 6-311+G(2d,p)
 ****
 1  2  14  15  16  17  18  19  20  21  22  24  25  26 0
 3-21G
 ****
 31  33  36  37  38  39  40  41  42  43  44  45  46 0
 3-21G
 ****


