%nproc=1
%NoSave
%Mem=1900MB
#P OB98/GEN NMR

erre ene a

0 1
  C     -364.450     776.739    -807.462
  O     -363.806     775.486    -807.341
  H     -365.006     776.943    -806.540
  H     -365.169     776.728    -808.286
  H     -363.716     777.532    -807.614
  P     -363.051     774.886    -808.626
  C     -361.285     773.756    -807.110
  O     -362.286     773.581    -808.106
  C     -360.632     772.419    -806.774
  O     -361.579     771.560    -806.076
  C     -360.203     771.622    -808.007
  O     -359.012     772.171    -808.556
  C     -360.075     770.225    -807.429
  O     -358.850     770.054    -806.725
  C     -361.290     770.187    -806.461
  N     -362.464     769.537    -807.043
  C     -362.514     768.154    -806.943
  O     -361.590     767.535    -806.382
  N     -363.577     767.493    -807.501
  C     -364.532     768.160    -808.074
  N     -365.555     767.440    -808.595
  C     -364.530     769.632    -808.200
  C     -363.473     770.255    -807.663
  O     -362.199     775.840    -809.411
  O     -364.250     774.287    -809.511
  H     -358.908     770.640    -805.942
  H     -364.595     774.960    -810.126
  H     -365.332     770.152    -808.686
  H     -363.393     771.344    -807.700
  H     -361.016     769.660    -805.529
  H     -360.129     769.467    -808.210
  H     -361.001     771.624    -808.753
  H     -359.779     772.599    -806.102
  H     -365.513     766.433    -808.509
  H     -361.779     774.175    -806.233
  H     -366.400     767.850    -808.997
  H     -360.519     774.468    -807.452
  P     -358.758     772.137    -810.141
  C     -358.548     774.716    -810.155
  O     -357.903     773.474    -810.458
  O     -359.980     771.949    -810.981
  O     -357.664     770.971    -810.315
  H     -358.086     770.092    -810.205
  H     -357.895     775.527    -810.403
  H     -358.781     774.752    -809.111
  H     -359.450     774.798    -810.724

 6  7  8  9  10  11  12  13  14  15  16  26  30  31  32  33  35 0
 6-311+G(2d,p)
 ****
 37  38 0
 6-311+G(2d,p)
 ****
 1  2  3  4  5  17  18  19  20  21  22  23  24  25 0
 3-21G
 ****
 27  28  29  34  36  39  40  41  42  43  44  45  46 0
 3-21G
 ****


