%nproc=1
%NoSave
%Mem=1900MB
#P OB98/GEN NMR

erre ene a

0 1
  C       -9.894     -57.550     224.164
  O       -9.621     -58.938     224.226
  H       -9.494     -57.076     225.063
  H      -10.973     -57.379     224.125
  H       -9.411     -57.112     223.285
  P      -10.112     -59.820     222.975
  C       -9.434     -59.840     220.474
  O       -9.414     -59.127     221.707
  C       -9.330     -58.871     219.296
  O      -10.538     -58.101     219.171
  C       -8.202     -57.855     219.412
  O       -6.962     -58.432     219.025
  C       -8.666     -56.800     218.422
  O       -8.350     -57.220     217.080
  C      -10.192     -56.798     218.623
  N      -12.276     -52.112     218.915
  C      -11.732     -52.795     217.879
  N      -11.160     -54.015     217.884
  C      -11.178     -54.544     219.119
  C      -11.703     -53.972     220.271
  C      -12.280     -52.698     220.135
  N      -12.843     -52.015     221.193
  N      -11.542     -54.812     221.353
  C      -10.980     -55.895     220.853
  N      -10.709     -55.768     219.512
  O      -11.582     -60.049     222.882
  O       -9.229     -61.143     223.170
  H       -8.413     -56.433     216.503
  H       -8.334     -60.914     223.473
  H      -11.761     -52.286     216.918
  H      -10.769     -56.801     221.412
  H      -10.727     -56.689     217.675
  H       -8.174     -55.838     218.578
  H       -8.161     -57.415     220.414
  H       -9.228     -59.469     218.380
  H      -10.348     -60.433     220.390
  H      -13.078     -51.044     221.046
  H      -12.734     -52.397     222.122
  H       -8.577     -60.523     220.477
  P       -5.584     -57.903     219.658
  C       -4.641     -57.860     222.051
  O       -5.815     -57.814     221.244
  O       -5.039     -56.662     219.039
  O       -4.575     -59.133     219.506
  H       -3.681     -58.816     219.278
  H       -4.915     -57.793     223.083
  H       -4.002     -57.040     221.798
  H       -4.125     -58.781     221.878

 6  7  8  9  10  11  12  13  14  15  25  28  32  33  34  35 0
 6-311+G(2d,p)
 ****
 36  39  40 0
 6-311+G(2d,p)
 ****
 1  2  3  4  5  16  17  18  19  20  21  22  23  24 0
 3-21G
 ****
 26  27  29  30  31  37  38  41  42  43  44  45  46  47 0
 3-21G
 ****
 48 0
 3-21G
 ****


