%nproc=1
%NoSave
%Mem=1900MB
#P OB98/GEN NMR

erre ene a

0 1
  C      412.861    -893.880    -391.542
  O      412.730    -893.820    -392.949
  H      411.918    -894.260    -391.108
  H      413.075    -892.900    -391.126
  H      413.664    -894.580    -391.271
  P      413.937    -893.200    -393.797
  C      414.307    -895.350    -395.184
  O      414.828    -894.470    -394.207
  C      415.430    -896.200    -395.791
  O      416.357    -895.370    -396.522
  C      416.288    -896.940    -394.765
  O      415.638    -898.060    -394.189
  C      417.459    -897.330    -395.649
  O      417.090    -898.440    -396.484
  C      417.646    -896.030    -396.476
  N      418.671    -895.160    -395.941
  C      420.003    -895.530    -396.165
  O      420.281    -896.550    -396.779
  N      421.010    -894.750    -395.637
  C      420.711    -893.690    -394.950
  N      421.742    -892.970    -394.429
  C      419.322    -893.240    -394.708
  C      418.374    -894.020    -395.227
  O      414.672    -892.070    -393.164
  O      413.268    -892.810    -395.200
  H      416.242    -898.220    -396.900
  H      413.970    -892.420    -395.768
  H      419.133    -892.380    -394.119
  H      417.328    -893.770    -395.073
  H      417.920    -896.300    -397.510
  H      418.341    -897.640    -395.073
  H      416.652    -896.270    -393.987
  H      414.972    -896.900    -396.510
  H      422.667    -893.330    -394.578
  H      413.798    -894.750    -395.946
  H      421.586    -892.320    -393.668
  H      413.569    -896.020    -394.724
  P      416.111    -898.560    -392.734
  C      414.347    -897.900    -390.941
  O      415.503    -897.520    -391.660
  O      417.673    -898.200    -392.748
  O      415.845    -900.000    -392.406
  H      418.201    -898.980    -393.010
  H      414.067    -897.112    -390.273
  H      414.552    -898.788    -390.380
  H      413.547    -898.088    -391.626

 6  7  8  9  10  11  12  13  14  15  16  26  30  31  32  33  35 0
 6-311+G(2d,p)
 ****
 37  38 0
 6-311+G(2d,p)
 ****
 1  2  3  4  5  17  18  19  20  21  22  23  24  25 0
 3-21G
 ****
 27  28  29  34  36  39  40  41  42  43  44  45  46 0
 3-21G
 ****


