%nproc=1
%NoSave
%Mem=1900MB
#P OB98/GEN NMR

erre ene a

0 1
  C      202.703     160.588     671.292
  O      202.199     160.882     672.581
  H      203.766     160.347     671.380
  H      202.593     161.451     670.628
  H      202.183     159.722     670.871
  P      200.673     161.346     672.718
  C      200.097     159.066     673.808
  O      200.047     160.487     673.919
  C      199.218     158.413     674.874
  O      199.838     158.517     676.172
  C      197.839     159.049     675.023
  O      196.993     158.669     673.948
  C      197.432     158.524     676.390
  O      196.980     157.166     676.308
  C      198.778     158.611     677.157
  N      198.913     159.821     677.956
  C      198.448     159.748     679.277
  O      197.939     158.709     679.691
  N      198.557     160.866     680.076
  C      199.113     161.941     679.614
  N      199.192     163.006     680.453
  C      199.654     162.049     678.243
  C      199.513     160.971     677.471
  O      199.861     161.328     671.460
  O      200.770     162.820     673.337
  H      196.667     156.926     677.205
  H      200.757     163.488     672.629
  H      200.126     162.967     677.908
  H      199.886     160.963     676.453
  H      198.893     157.749     677.826
  H      196.621     159.107     676.831
  H      197.928     160.139     675.078
  H      199.136     157.344     674.633
  H      198.829     162.878     681.391
  H      201.142     158.767     673.953
  H      199.746     163.830     680.270
  H      199.782     158.745     672.812
  P      195.849     159.644     673.396
  C      196.727     159.951     670.993
  O      195.744     159.337     671.821
  O      196.007     161.083     673.748
  O      194.496     158.993     673.957
  H      194.381     159.213     674.919
  H      196.557     159.676     669.973
  H      197.701     159.624     671.293
  H      196.662     161.015     671.091

 6  7  8  9  10  11  12  13  14  15  16  26  30  31  32  33  35 0
 6-311+G(2d,p)
 ****
 37  38 0
 6-311+G(2d,p)
 ****
 1  2  3  4  5  17  18  19  20  21  22  23  24  25 0
 3-21G
 ****
 27  28  29  34  36  39  40  41  42  43  44  45  46 0
 3-21G
 ****


