%nproc=1
%NoSave
%Mem=1900MB
#P OB98/GEN NMR

erre ene a

0 1
  C       -0.064     356.849     600.720
  O       -0.743     357.188     601.910
  H       -0.797     356.503     599.986
  H        0.644     356.040     600.920
  H        0.471     357.706     600.306
  P        0.028     358.052     603.015
  C        0.695     357.741     605.494
  O        0.130     357.140     604.340
  C        1.090     356.692     606.529
  O       -0.085     355.972     606.971
  C        2.035     355.643     605.905
  O        2.911     355.067     606.862
  C        1.070     354.578     605.413
  O        1.691     353.309     605.228
  C        0.003     354.611     606.504
  N       -3.446     350.855     606.547
  C       -2.151     350.859     607.044
  N       -1.711     349.708     607.609
  N       -1.359     351.898     606.983
  C       -1.905     352.957     606.328
  C       -3.159     353.057     605.770
  C       -4.044     351.913     605.887
  O       -5.192     351.845     605.461
  N       -3.350     354.285     605.172
  C       -2.206     354.920     605.361
  N       -1.300     354.157     606.067
  O       -1.048     359.162     603.450
  O        1.319     358.675     602.576
  H        2.021     353.014     606.099
  H       -0.597     359.953     603.804
  H       -4.018     350.031     606.645
  H       -1.987     355.918     605.015
  H        0.304     353.975     607.355
  H        0.678     354.893     604.430
  H       -2.223     348.844     607.528
  H        2.619     356.065     605.085
  H       -0.697     349.603     607.706
  H        1.526     357.161     607.416
  H       -0.058     358.414     605.912
  H        1.558     358.356     605.213
  P        4.494     355.196     606.598
  C        6.311     353.765     605.343
  O        4.944     353.962     605.681
  O        5.151     354.889     608.021
  O        4.897     356.538     606.066
  H        5.465     355.703     608.435
  H        6.405     352.894     604.729
  H        6.884     353.634     606.237
  H        6.673     354.619     604.809

 6  7  8  9  10  11  12  13  14  15  26  29  33  34 0
 6-311+G(2d,p)
 ****
 36  38  39  40  41 0
 6-311+G(2d,p)
 ****
 1  2  3  4  5  16  17  18  19  20  21  22  23  24  25 0
 3-21G
 ****
 27  28  30  31  32  35  37  42  43  44  45  46  47 0
 3-21G
 ****
 48  49 0
 3-21G
 ****


