%nproc=1
%NoSave
%Mem=1900MB
#P OB98/GEN NMR

erre ene a

0 1
  C     1301.342    -967.367     536.910
  O     1301.795    -966.929     535.632
  H     1301.773    -968.352     537.117
  H     1300.241    -967.478     536.885
  H     1301.616    -966.670     537.693
  P     1301.686    -965.376     535.275
  C     1303.775    -965.701     533.796
  O     1302.457    -965.122     533.891
  C     1304.410    -965.366     532.438
  O     1304.468    -963.922     532.256
  C     1305.875    -965.870     532.336
  O     1306.004    -967.226     531.908
  C     1306.461    -964.884     531.322
  O     1306.278    -965.369     529.971
  C     1305.676    -963.604     531.563
  N     1307.670    -958.899     531.752
  C     1307.107    -959.566     530.642
  N     1307.145    -958.896     529.481
  N     1306.608    -960.783     530.752
  C     1306.762    -961.335     531.949
  C     1307.303    -960.780     533.083
  C     1307.802    -959.439     533.044
  O     1308.285    -958.764     533.946
  N     1307.326    -961.677     534.143
  C     1306.873    -962.789     533.623
  N     1306.441    -962.608     532.304
  O     1302.650    -964.675     536.345
  O     1300.299    -964.801     535.341
  H     1306.833    -966.159     529.861
  H     1302.304    -963.795     536.555
  H     1308.014    -957.950     531.636
  H     1306.786    -963.735     534.123
  H     1305.393    -963.127     530.601
  H     1307.528    -964.776     531.476
  H     1307.584    -958.003     529.346
  H     1306.408    -965.737     533.314
  H     1306.919    -959.426     528.636
  H     1303.814    -965.768     531.623
  H     1303.647    -966.774     533.897
  H     1304.422    -965.336     534.603
  P     1306.671    -968.306     532.826
  C     1305.607    -970.146     531.280
  O     1306.723    -969.699     532.030
  O     1305.567    -968.594     533.966
  O     1308.011    -967.938     533.409
  H     1305.785    -968.091     534.772
  H     1305.836    -971.088     530.827
  H     1305.379    -969.430     530.519
  H     1304.763    -970.258     531.928

 6  7  8  9  10  11  12  13  14  15  26  29  33  34 0
 6-311+G(2d,p)
 ****
 36  38  39  40  41 0
 6-311+G(2d,p)
 ****
 1  2  3  4  5  16  17  18  19  20  21  22  23  24  25 0
 3-21G
 ****
 27  28  30  31  32  35  37  42  43  44  45  46  47 0
 3-21G
 ****
 48  49 0
 3-21G
 ****


