%nproc=1
%NoSave
%Mem=1900MB
#P OB98/GEN NMR

erre ene a

0 1
  C      223.352     -95.460     108.904
  O      224.116     -94.514     109.656
  P      225.395     -93.878     108.927
  C      225.017     -91.427     108.151
  O      225.396     -92.300     109.208
  C      225.284     -89.975     108.547
  O      225.242     -89.093     107.403
  C      224.254     -89.416     109.522
  O      224.464     -89.921     110.829
  C      224.502     -87.919     109.371
  O      225.656     -87.521     110.131
  C      224.805     -87.794     107.869
  N      222.367     -83.746     105.904
  C      223.491     -83.851     106.643
  N      224.075     -84.966     107.131
  C      223.383     -86.060     106.773
  C      222.222     -86.110     106.018
  C      221.705     -84.881     105.575
  N      220.550     -84.772     104.832
  N      221.800     -87.414     105.859
  C      222.679     -88.135     106.527
  N      223.660     -87.363     107.086
  O      225.027     -93.988     107.374
  O      226.676     -94.580     109.242
  H      225.616     -86.549     110.236
  H      225.574     -94.676     106.950
  H      223.990     -82.913     106.878
  H      222.645     -89.214     106.634
  H      225.617     -87.085     107.667
  H      223.660     -87.308     109.710
  H      223.240     -89.664     109.184
  H      226.286     -89.922     108.993
  H      223.958     -91.560     107.913
  H      220.205     -83.850     104.624
  H      220.002     -85.603     104.658
  H      225.578     -91.701     107.251
  P      223.174     -90.350     111.679
  C      222.592     -92.521     110.433
  O      223.179     -91.956     111.591
  O      221.987     -89.949     110.689
  O      223.105     -89.777     113.053
  H      222.164     -90.238     109.776
  H      222.692     -93.608     110.485
  H      223.101     -92.158     109.536
  H      221.529     -92.265     110.390
  H      222.532     -95.808     109.497
  H      223.974     -96.288     108.635
  H      222.978     -94.992     108.017

 3  4  5  6  7  8  9  10  11  12  22  25  29  30  31  32 0
 6-311+G(2d,p)
 ****
 33  36  37 0
 6-311+G(2d,p)
 ****
 1  2  13  14  15  16  17  18  19  20  21  23  24  26 0
 3-21G
 ****
 27  28  34  35  38  39  40  41  42  43  44  45  46  47  48 0
 3-21G
 ****


