%nproc=1
%NoSave
%Mem=1900MB
#P OB98/GEN NMR

erre ene a

0 1
  C      145.836     384.506    -514.964
  O      145.297     384.688    -516.272
  P      145.295     386.177    -516.866
  C      142.712     386.564    -516.611
  O      143.835     386.457    -517.469
  C      141.548     387.282    -517.314
  O      142.048     388.535    -517.864
  C      140.947     386.542    -518.508
  O      139.656     387.093    -518.785
  C      141.900     386.911    -519.619
  O      141.323     386.678    -520.899
  C      142.231     388.381    -519.298
  N      143.613     388.772    -519.667
  C      143.810     389.452    -520.866
  O      142.902     389.741    -521.648
  N      145.109     389.759    -521.182
  C      146.202     389.496    -520.413
  O      147.354     389.708    -520.780
  C      145.926     388.906    -519.096
  C      144.670     388.576    -518.793
  O      146.236     386.065    -518.165
  O      145.779     387.211    -515.913
  H      140.648     387.387    -521.044
  H      147.101     386.483    -517.981
  H      145.270     390.185    -522.084
  H      146.761     388.756    -518.426
  H      144.451     388.118    -517.826
  H      141.552     389.065    -519.814
  H      142.799     386.300    -519.554
  H      140.867     385.463    -518.371
  H      140.778     387.534    -516.583
  H      142.987     387.089    -515.697
  H      142.386     385.562    -516.313
  P      138.456     386.759    -517.771
  C      137.467     385.218    -519.574
  O      137.221     386.277    -518.668
  O      138.152     387.805    -516.745
  O      138.945     385.384    -517.082
  H      138.457     385.244    -516.253
  H      136.547     384.656    -519.724
  H      138.244     384.542    -519.208
  H      137.785     385.643    -520.537
  H      145.775     383.472    -514.694
  H      145.278     385.091    -514.264
  H      146.859     384.818    -514.953

 3  4  5  6  7  8  9  10  11  12  13  23  28  29  30  31  32 0
 6-311+G(2d,p)
 ****
 33  34 0
 6-311+G(2d,p)
 ****
 1  2  14  15  16  17  18  19  20  21  22  24  25  26  27 0
 3-21G
 ****
 35  36  37  38  39  40  41  42  43  44  45 0
 3-21G
 ****


