%nproc=1
%NoSave
%Mem=1900MB
#P OB98/GEN NMR

erre ene a

0 1
  C      298.275    -491.401      50.955
  O      297.192    -492.271      50.694
  P      295.993    -491.908      49.705
  C      293.951    -490.838      50.913
  O      294.611    -492.037      50.533
  C      292.593    -491.090      51.606
  O      291.619    -491.496      50.627
  C      292.731    -492.268      52.594
  O      293.233    -492.048      53.895
  C      291.383    -492.986      52.538
  O      290.519    -492.608      53.614
  C      290.800    -492.540      51.193
  N      289.204    -497.269      50.302
  C      288.887    -496.430      51.354
  N      288.205    -496.992      52.374
  N      289.218    -495.162      51.390
  C      289.977    -494.772      50.334
  C      290.341    -495.512      49.233
  C      289.928    -496.898      49.179
  O      290.263    -497.697      48.311
  N      291.172    -494.808      48.396
  C      291.339    -493.653      49.010
  N      290.671    -493.597      50.210
  O      296.058    -492.470      48.318
  O      296.158    -490.308      49.585
  H      289.611    -492.809      53.348
  H      295.900    -490.055      48.674
  H      288.982    -498.261      50.359
  H      291.966    -492.840      48.655
  H      289.802    -492.106      51.332
  H      291.526    -494.073      52.613
  H      288.062    -497.985      52.450
  H      293.442    -492.971      52.149
  H      288.108    -496.449      53.237
  H      292.209    -490.179      52.063
  H      293.805    -490.236      50.008
  H      294.591    -490.262      51.587
  P      294.659    -492.526      54.456
  C      293.601    -493.204      56.687
  O      294.625    -492.452      56.057
  O      295.650    -491.324      54.067
  O      295.160    -493.816      53.889
  H      296.574    -491.657      54.042
  H      293.477    -492.856      57.716
  H      293.888    -494.269      56.704
  H      292.648    -493.105      56.154
  H      298.947    -491.865      51.647
  H      297.906    -490.488      51.374
  H      298.792    -491.191      50.042

 3  4  5  6  7  8  9  10  11  12  23  26  30  31 0
 6-311+G(2d,p)
 ****
 33  35  36  37  38 0
 6-311+G(2d,p)
 ****
 1  2  13  14  15  16  17  18  19  20  21  22  24  25 0
 3-21G
 ****
 27  28  29  32  34  39  40  41  42  43  44  45  46  47  48  49 0
 3-21G
 ****


