%nproc=1
%NoSave
%Mem=1900MB
#P OB98/GEN NMR

erre ene a

0 1
  C      145.811    -164.066    -114.536
  O      144.696    -163.344    -115.068
  P      143.517    -164.221    -115.726
  C      141.687    -165.840    -114.823
  O      142.657    -164.844    -114.522
  C      140.888    -166.212    -113.577
  O      141.761    -166.642    -112.512
  C      140.078    -165.066    -112.986
  O      138.865    -164.857    -113.696
  C      139.801    -165.590    -111.586
  O      138.670    -166.480    -111.610
  C      141.089    -166.366    -111.258
  N      143.156    -166.077    -106.638
  C      142.248    -166.986    -107.147
  N      141.854    -167.972    -106.311
  N      141.768    -166.934    -108.361
  C      142.275    -165.907    -109.090
  C      143.175    -164.943    -108.704
  C      143.677    -164.997    -107.346
  O      144.457    -164.201    -106.834
  N      143.457    -164.073    -109.727
  C      142.747    -164.529    -110.743
  N      142.002    -165.628    -110.406
  O      144.299    -165.490    -116.313
  O      142.744    -163.504    -116.777
  H      138.986    -167.334    -111.972
  H      143.808    -165.864    -117.066
  H      143.489    -166.162    -105.695
  H      142.739    -164.099    -111.738
  H      140.873    -167.329    -110.783
  H      139.559    -164.792    -110.872
  H      142.238    -168.114    -105.389
  H      140.683    -164.148    -112.926
  H      141.216    -168.668    -106.679
  H      140.220    -167.045    -113.836
  H      142.182    -166.730    -115.217
  H      141.028    -165.467    -115.616
  P      138.653    -163.420    -114.380
  C      139.068    -162.473    -116.759
  O      139.192    -163.576    -115.881
  O      139.757    -162.507    -113.662
  O      137.278    -162.861    -114.225
  H      139.464    -161.581    -113.639
  H      139.336    -161.539    -116.265
  H      138.037    -162.414    -117.129
  H      139.738    -162.626    -117.611
  H      146.521    -163.377    -114.130
  H      146.272    -164.636    -115.316
  H      145.473    -164.726    -113.764

 3  4  5  6  7  8  9  10  11  12  23  26  30  31  33  0
 6-311+G(2d,p)
 ****
 35  36  37  38 0
 6-311+G(2d,p)
 ****
 1  2  13  14  15  16  17  18  19  20  21  22  24  25  27  28  29 0
 3-21G
 ****
 32  34  39  40  41  42  43  44  45  46  47  48  49 0
 3-21G
 ****


