%nproc=1
%NoSave
%Mem=1900MB
#P OB98/GEN NMR

erre ene a

0 1
  C     -251.597     130.049     279.042
  O     -252.834     129.772     278.420
  H     -251.072     130.816     278.463
  H     -250.971     129.152     279.080
  H     -251.764     130.430     280.057
  P     -253.730     128.566     278.975
  C     -254.014     127.550     276.630
  O     -254.673     128.099     277.763
  C     -255.021     126.875     275.689
  O     -255.352     125.566     276.229
  C     -256.329     127.660     275.526
  O     -256.769     127.530     274.169
  C     -257.272     126.940     276.464
  O     -258.630     127.137     276.100
  C     -256.781     125.491     276.379
  N     -257.167     124.725     277.556
  C     -258.544     124.519     277.745
  O     -259.358     124.971     276.931
  N     -258.978     123.885     278.879
  C     -258.114     123.525     279.783
  N     -258.606     122.928     280.903
  C     -256.658     123.737     279.642
  C     -256.262     124.331     278.517
  O     -254.446     128.822     280.262
  O     -252.685     127.354     279.116
  H     -259.209     126.729     276.791
  H     -252.293     127.350     280.012
  H     -255.981     123.427     280.426
  H     -255.210     124.545     278.327
  H     -257.186     124.995     275.483
  H     -257.145     127.322     277.484
  H     -256.225     128.724     275.780
  H     -254.539     126.706     274.720
  H     -259.622     122.828     280.970
  H     -253.287     126.805     276.987
  H     -258.046     122.644     281.691
  H     -253.474     128.335     276.093
  P     -256.050     128.355     272.991
  C     -257.166     130.605     273.454
  O     -257.025     129.546     272.516
  O     -255.510     127.513     271.876
  O     -254.858     129.128     273.744
  H     -254.119     129.253     273.123
  H     -257.827     131.347     273.057
  H     -256.209     131.044     273.642
  H     -257.568     130.221     274.368

 6  7  8  9  10  11  12  13  14  15  16  26  30  31  32  33  35 0
 6-311+G(2d,p)
 ****
 37  38 0
 6-311+G(2d,p)
 ****
 1  2  3  4  5  17  18  19  20  21  22  23  24  25 0
 3-21G
 ****
 27  28  29  34  36  39  40  41  42  43  44  45  46 0
 3-21G
 ****


