%nproc=1
%NoSave
%Mem=1900MB
#P OB98/GEN NMR

erre ene a

0 1
  C     -482.221     112.770     -28.251
  O     -482.230     111.763     -27.249
  P     -483.638     111.090     -26.892
  C     -483.715     111.598     -24.335
  O     -484.231     111.886     -25.633
  C     -484.489     112.375     -23.278
  O     -484.177     113.780     -23.369
  C     -486.005     112.286     -23.411
  O     -486.484     111.034     -22.949
  C     -486.427     113.477     -22.551
  O     -486.363     113.145     -21.155
  C     -485.341     114.517     -22.905
  N     -486.075     119.453     -24.069
  C     -485.683     118.843     -22.926
  N     -485.532     117.527     -22.680
  C     -485.828     116.806     -23.782
  C     -486.266     117.282     -25.013
  C     -486.379     118.675     -25.134
  N     -486.784     119.293     -26.301
  N     -486.496     116.251     -25.890
  C     -486.186     115.162     -25.214
  N     -485.765     115.441     -23.934
  O     -483.225     109.672     -26.278
  O     -484.576     110.937     -28.055
  H     -486.352     113.986     -20.660
  H     -483.886     108.984     -26.496
  H     -485.452     119.505     -22.090
  H     -486.250     114.147     -25.590
  H     -485.035     115.109     -22.031
  H     -487.451     113.818     -22.761
  H     -486.310     112.437     -24.448
  H     -484.172     112.014     -22.289
  H     -482.660     111.891     -24.292
  H     -486.988     120.278     -26.262
  H     -487.144     118.705     -27.047
  H     -483.771     110.519     -24.163
  P     -487.970     110.605     -23.388
  C     -488.715     109.916     -21.016
  O     -488.842     110.863     -22.061
  O     -487.850     109.010     -23.424
  O     -488.460     111.245     -24.637
  H     -487.431     108.665     -22.618
  H     -489.310     110.237     -20.168
  H     -487.672     109.841     -20.705
  H     -489.076     108.936     -21.362
  H     -481.222     113.129     -28.387
  H     -482.853     113.579     -27.949
  H     -482.581     112.360     -29.172

 3  4  5  6  7  8  9  10  11  12  22  25  29  30  31  32 0
 6-311+G(2d,p)
 ****
 33  36  37 0
 6-311+G(2d,p)
 ****
 1  2  13  14  15  16  17  18  19  20  21  23  24  26 0
 3-21G
 ****
 27  28  34  35  38  39  40  41  42  43  44  45  46  47  48 0
 3-21G
 ****


