%nproc=1
%NoSave
%Mem=1900MB
#P OB98/GEN NMR

erre ene a

0 1
  C      183.136     210.743     280.002
  O      182.414     209.655     280.536
  H      184.136     210.746     280.441
  H      182.636     211.681     280.261
  H      183.229     210.663     278.917
  P      181.041     209.221     279.837
  C      181.691     206.855     279.035
  O      181.413     208.197     278.660
  C      181.215     205.878     277.953
  O      179.766     205.901     277.903
  C      181.716     206.290     276.565
  O      181.860     205.174     275.691
  C      180.591     207.176     276.053
  O      180.557     207.273     274.629
  C      179.367     206.489     276.653
  N      174.393     207.347     275.950
  C      175.198     206.374     275.392
  N      174.595     205.514     274.536
  N      176.479     206.267     275.633
  C      176.957     207.236     276.449
  C      176.264     208.265     277.044
  C      174.839     208.352     276.797
  O      174.085     209.207     277.248
  N      177.093     209.056     277.799
  C      178.285     208.512     277.658
  N      178.250     207.389     276.867
  O      180.601     210.532     279.025
  O      179.959     208.761     280.765
  H      181.452     207.525     274.332
  H      179.643     210.517     278.851
  H      173.407     207.366     275.755
  H      179.195     208.878     278.116
  H      179.017     205.681     275.999
  H      180.746     208.186     276.441
  H      173.668     205.685     274.178
  H      182.656     206.836     276.602
  H      175.212     205.009     273.893
  H      181.508     204.855     278.216
  H      181.166     206.672     279.976
  H      182.757     206.728     279.228
  P      183.296     204.476     275.569
  C      182.365     202.424     276.957
  O      183.423     203.303     276.646
  O      184.307     205.593     276.099
  O      183.642     204.016     274.188
  H      184.901     205.884     275.382
  H      182.687     201.728     277.703
  H      182.072     201.893     276.076
  H      181.533     202.985     277.329

 6  7  8  9  10  11  12  13  14  15  26  29  33  34 0
 6-311+G(2d,p)
 ****
 36  38  39  40  41 0
 6-311+G(2d,p)
 ****
 1  2  3  4  5  16  17  18  19  20  21  22  23  24  25 0
 3-21G
 ****
 27  28  30  31  32  35  37  42  43  44  45  46  47 0
 3-21G
 ****
 48  49 0
 3-21G
 ****


