%nproc=1
%NoSave
%Mem=1900MB
#P OB98/GEN NMR

erre ene a

0 1
  C      192.606    -701.446     -99.413
  O      191.694    -700.594    -100.073
  H      192.061    -702.031     -98.666
  H      193.371    -700.853     -98.905
  H      193.079    -702.140    -100.116
  P      192.153    -699.870    -101.424
  C      190.997    -701.572    -102.983
  O      191.058    -700.223    -102.542
  C      189.684    -701.842    -103.728
  O      188.574    -701.710    -102.795
  C      189.453    -700.815    -104.845
  O      188.667    -701.347    -105.908
  C      188.657    -699.730    -104.139
  O      187.887    -698.927    -105.032
  C      187.811    -700.552    -103.171
  N      184.944    -696.820    -101.203
  C      185.196    -697.116    -102.525
  N      184.603    -696.324    -103.450
  N      185.974    -698.100    -102.914
  C      186.562    -698.761    -101.884
  C      186.412    -698.539    -100.540
  C      185.515    -697.480    -100.120
  O      185.277    -697.155     -98.961
  N      187.168    -699.405     -99.796
  C      187.783    -700.155    -100.689
  N      187.424    -699.817    -101.975
  O      193.420    -700.726    -101.900
  O      192.489    -698.416    -101.296
  H      187.648    -698.109    -104.557
  H      193.984    -700.202    -102.493
  H      184.319    -696.075    -100.962
  H      188.473    -700.958    -100.467
  H      186.896    -700.897    -103.647
  H      189.359    -699.065    -103.628
  H      184.164    -695.453    -103.195
  H      190.379    -700.418    -105.251
  H      185.014    -696.333    -104.389
  H      189.668    -702.874    -104.097
  H      191.065    -702.203    -102.093
  H      191.853    -701.808    -103.618
  P      189.183    -701.148    -107.413
  C      189.787    -703.699    -107.794
  O      189.102    -702.536    -108.202
  O      190.749    -700.897    -107.246
  O      188.508    -700.031    -108.153
  H      190.985    -699.996    -107.537
  H      189.577    -704.495    -108.478
  H      189.464    -703.978    -106.813
  H      190.840    -703.507    -107.782

 6  7  8  9  10  11  12  13  14  15  26  29  33  34 0
 6-311+G(2d,p)
 ****
 36  38  39  40  41 0
 6-311+G(2d,p)
 ****
 1  2  3  4  5  16  17  18  19  20  21  22  23  24  25 0
 3-21G
 ****
 27  28  30  31  32  35  37  42  43  44  45  46  47 0
 3-21G
 ****
 48  49 0
 3-21G
 ****


