%nproc=1
%NoSave
%Mem=1900MB
#P OB98/GEN NMR

erre ene a

0 1
  C      154.209    -205.072    -194.885
  O      153.351    -205.697    -195.819
  H      153.735    -204.155    -194.532
  H      155.155    -204.814    -195.370
  H      154.395    -205.727    -194.027
  P      153.694    -207.216    -196.215
  C      155.191    -206.575    -198.237
  O      155.119    -207.181    -196.956
  C      156.157    -207.340    -199.133
  O      157.498    -207.281    -198.598
  C      155.826    -208.823    -199.294
  O      154.841    -209.034    -200.298
  C      157.174    -209.368    -199.728
  O      157.399    -209.056    -201.120
  C      158.143    -208.559    -198.852
  N      160.118    -212.652    -196.598
  C      159.889    -212.404    -197.937
  N      160.225    -213.389    -198.798
  N      159.369    -211.291    -198.396
  C      159.061    -210.409    -197.416
  C      159.235    -210.543    -196.056
  C      159.822    -211.770    -195.569
  O      160.056    -212.033    -194.392
  N      158.799    -209.433    -195.377
  C      158.342    -208.639    -196.327
  N      158.474    -209.184    -197.581
  O      152.656    -207.513    -197.400
  O      153.556    -208.208    -195.109
  H      157.450    -208.085    -201.191
  H      151.920    -208.051    -197.046
  H      160.510    -213.531    -196.301
  H      157.914    -207.657    -196.161
  H      159.093    -208.354    -199.361
  H      157.244    -210.454    -199.633
  H      160.607    -214.276    -198.513
  H      155.535    -209.280    -198.337
  H      160.068    -213.226    -199.785
  H      156.178    -206.844    -200.112
  H      155.538    -205.541    -198.127
  H      154.190    -206.568    -198.686
  P      153.775    -210.213    -200.079
  C      154.610    -211.443    -202.202
  O      154.363    -211.517    -200.806
  O      152.563    -209.767    -201.027
  O      153.319    -210.405    -198.671
  H      151.792    -209.512    -200.483
  H      154.997    -212.379    -202.546
  H      155.322    -210.669    -202.398
  H      153.697    -211.225    -202.715

 6  7  8  9  10  11  12  13  14  15  26  29  33  34 0
 6-311+G(2d,p)
 ****
 36  38  39  40  41 0
 6-311+G(2d,p)
 ****
 1  2  3  4  5  16  17  18  19  20  21  22  23  24  25 0
 3-21G
 ****
 27  28  30  31  32  35  37  42  43  44  45  46  47 0
 3-21G
 ****
 48  49 0
 3-21G
 ****


