%nproc=1
%NoSave
%Mem=1900MB
#P OB98/GEN NMR

erre ene a

0 1
  C     -159.232     254.875      16.882
  O     -160.569     255.336      16.920
  P     -161.531     254.800      18.093
  C     -162.081     257.036      19.366
  O     -161.361     255.821      19.322
  C     -162.459     257.382      20.810
  O     -161.244     257.453      21.610
  C     -163.195     258.724      20.978
  O     -164.142     258.556      22.044
  C     -162.081     259.673      21.386
  O     -162.571     260.825      22.065
  C     -161.227     258.743      22.259
  N     -159.851     259.214      22.423
  C     -159.609     260.198      23.382
  O     -160.487     260.708      24.075
  N     -158.301     260.610      23.499
  C     -157.256     260.191      22.728
  O     -156.109     260.607      22.862
  C     -157.577     259.189      21.702
  C     -158.833     258.747      21.604
  O     -160.746     253.489      18.561
  O     -162.940     254.576      17.661
  H     -159.778     253.586      18.518
  H     -162.881     261.458      21.392
  H     -158.099     261.294      24.212
  H     -156.773     258.846      21.061
  H     -159.095     258.005      20.859
  H     -161.690     258.612      23.245
  H     -161.539     259.997      20.495
  H     -163.714     259.022      20.061
  H     -163.062     256.559      21.217
  H     -163.004     256.935      18.777
  H     -161.482     257.836      18.919
  P     -165.432     259.518      22.077
  C     -166.812     258.073      20.387
  O     -166.216     259.309      20.697
  O     -164.722     260.943      21.872
  O     -166.238     259.454      23.330
  H     -164.089     260.952      21.136
  H     -167.563     258.221      19.603
  H     -167.309     257.635      21.260
  H     -166.051     257.377      20.019
  H     -158.725     255.319      16.051
  H     -159.225     253.810      16.777
  H     -158.735     255.147      17.790

 3  4  5  6  7  8  9  10  11  12  13  24  28  29  30  31  32 0
 6-311+G(2d,p)
 ****
 33  34 0
 6-311+G(2d,p)
 ****
 1  2  14  15  16  17  18  19  20  21  22  23  25  26  27 0
 3-21G
 ****
 35  36  37  38  39  40  41  42  43  44  45 0
 3-21G
 ****


