%nproc=1
%NoSave
%Mem=1900MB
#P OB98/GEN NMR

erre ene a

0 1
  C      -20.811     -65.085     -35.200
  O      -21.032     -63.689     -35.165
  H      -21.769     -65.593     -35.053
  H      -20.135     -65.382     -34.394
  H      -20.399     -65.389     -36.166
  P      -19.800     -62.704     -35.454
  C      -17.405     -62.430     -34.560
  O      -18.669     -63.049     -34.367
  C      -16.890     -61.840     -33.247
  O      -17.773     -60.761     -32.841
  C      -16.827     -62.856     -32.098
  O      -15.667     -62.583     -31.315
  C      -18.073     -62.547     -31.288
  O      -17.934     -62.919     -29.919
  C      -18.220     -61.041     -31.499
  N      -21.210     -57.884     -28.924
  C      -19.835     -58.008     -28.924
  N      -19.149     -57.187     -28.098
  N      -19.186     -58.865     -29.670
  C      -19.996     -59.613     -30.457
  C      -21.367     -59.585     -30.547
  C      -22.076     -58.642     -29.706
  O      -23.291     -58.495     -29.654
  N      -21.825     -60.518     -31.446
  C      -20.732     -61.110     -31.893
  N      -19.596     -60.603     -31.317
  O      -20.147     -61.252     -35.544
  O      -19.177     -63.253     -36.821
  H      -17.150     -62.441     -29.569
  H      -19.470     -62.711     -37.576
  H      -21.659     -57.212     -28.323
  H      -20.707     -61.908     -32.625
  H      -17.608     -60.459     -30.799
  H      -18.930     -63.088     -31.708
  H      -19.580     -56.493     -27.508
  H      -16.808     -63.893     -32.447
  H      -18.136     -57.244     -28.098
  H      -15.906     -61.393     -33.429
  H      -17.524     -61.630     -35.301
  H      -16.693     -63.168     -34.946
  P      -14.432     -63.605     -31.380
  C      -14.039     -66.087     -30.810
  O      -14.836     -64.932     -30.573
  O      -13.098     -63.031     -31.036
  O      -14.468     -64.105     -32.906
  H      -13.558     -64.326     -33.188
  H      -14.405     -66.900     -30.219
  H      -13.024     -65.881     -30.543
  H      -14.089     -66.349     -31.846

 6  7  8  9  10  11  12  13  14  15  26  29  33  34 0
 6-311+G(2d,p)
 ****
 36  38  39  40  41 0
 6-311+G(2d,p)
 ****
 1  2  3  4  5  16  17  18  19  20  21  22  23  24  25 0
 3-21G
 ****
 27  28  30  31  32  35  37  42  43  44  45  46  47 0
 3-21G
 ****
 48  49 0
 3-21G
 ****


