%nproc=1
%NoSave
%Mem=1900MB
#P OB98/GEN NMR

erre ene a

0 1
  C     1026.714     -53.055    -214.321
  O     1027.245     -54.390    -214.452
  P     1028.724     -54.779    -213.989
  C     1029.792     -53.725    -216.093
  O     1029.780     -53.773    -214.669
  C     1030.660     -52.583    -216.614
  O     1031.856     -52.439    -215.823
  C     1031.148     -52.736    -218.047
  O     1030.099     -52.461    -218.971
  C     1032.296     -51.741    -218.073
  O     1031.828     -50.401    -218.301
  C     1032.883     -51.883    -216.662
  N     1034.091     -52.701    -216.635
  C     1035.291     -52.067    -216.966
  O     1035.284     -50.880    -217.312
  N     1036.461     -52.783    -216.915
  C     1036.415     -54.055    -216.637
  N     1037.598     -54.708    -216.599
  C     1035.162     -54.784    -216.375
  C     1034.051     -54.055    -216.388
  O     1029.051     -56.222    -214.178
  O     1028.801     -54.385    -212.437
  H     1032.629     -49.830    -218.284
  H     1029.406     -55.000    -211.981
  H     1035.177     -55.842    -216.178
  H     1033.087     -54.521    -216.191
  H     1033.118     -50.892    -216.239
  H     1033.011     -51.962    -218.876
  H     1031.534     -53.753    -218.196
  H     1030.071     -51.646    -216.503
  H     1038.450     -54.175    -216.780
  H     1028.765     -53.580    -216.442
  H     1037.694     -55.692    -216.386
  H     1030.161     -54.685    -216.479
  P     1029.488     -53.658    -219.855
  C     1030.437     -52.597    -221.989
  O     1030.361     -53.758    -221.185
  O     1028.015     -53.609    -220.059
  O     1029.909     -54.975    -219.042
  H     1029.228     -55.657    -219.178
  H     1031.342     -52.656    -222.601
  H     1030.501     -51.694    -221.364
  H     1029.566     -52.545    -222.626
  H     1025.712     -53.032    -214.695
  H     1027.319     -52.374    -214.882
  H     1026.717     -52.770    -213.290

 3  4  5  6  7  8  9  10  11  12  13  23  27  28  29  30  32 0
 6-311+G(2d,p)
 ****
 34  35 0
 6-311+G(2d,p)
 ****
 1  2  14  15  16  17  18  19  20  21  22  24  25  26 0
 3-21G
 ****
 31  33  36  37  38  39  40  41  42  43  44  45  46 0
 3-21G
 ****


