%nproc=1
%NoSave
%Mem=1900MB
#P OB98/GEN NMR

erre ene a

0 1
  C       36.510    -127.767    -135.127
  O       37.059    -127.201    -136.302
  H       36.610    -127.048    -134.311
  H       37.049    -128.680    -134.862
  H       35.449    -127.990    -135.276
  P       37.030    -128.119    -137.619
  C       38.111    -130.392    -138.248
  O       38.141    -129.257    -137.393
  C       39.482    -130.620    -138.877
  O       39.798    -129.561    -139.809
  C       40.631    -130.678    -137.878
  O       40.743    -131.966    -137.298
  C       41.816    -130.327    -138.768
  O       42.268    -131.473    -139.518
  C       41.216    -129.264    -139.698
  N       43.988    -125.083    -140.263
  C       44.030    -126.280    -140.947
  N       44.994    -126.397    -141.889
  N       43.214    -127.275    -140.726
  C       42.326    -127.024    -139.734
  C       42.171    -125.875    -138.995
  C       43.063    -124.769    -139.275
  O       43.032    -123.661    -138.750
  N       41.146    -125.998    -138.094
  C       40.708    -127.231    -138.261
  N       41.404    -127.901    -139.234
  O       37.688    -127.184    -138.741
  O       35.682    -128.605    -138.031
  H       41.502    -131.916    -139.919
  H       37.301    -127.406    -139.608
  H       44.630    -124.346    -140.494
  H       39.897    -127.683    -137.706
  H       41.639    -129.316    -140.708
  H       42.670    -129.980    -138.183
  H       45.827    -125.826    -141.869
  H       40.516    -129.905    -137.107
  H       45.048    -127.281    -142.379
  H       39.427    -131.553    -139.454
  H       37.376    -130.221    -139.041
  H       37.812    -131.271    -137.668
  P       40.719    -132.067    -135.696
  C       42.377    -131.459    -133.785
  O       42.131    -131.502    -135.186
  O       40.835    -133.641    -135.424
  O       39.512    -131.476    -135.051
  H       40.559    -133.844    -134.509
  H       43.354    -131.061    -133.606
  H       42.316    -132.448    -133.382
  H       41.646    -130.836    -133.314

 6  7  8  9  10  11  12  13  14  15  26  29  33  34 0
 6-311+G(2d,p)
 ****
 36  38  39  40  41 0
 6-311+G(2d,p)
 ****
 1  2  3  4  5  16  17  18  19  20  21  22  23  24  25 0
 3-21G
 ****
 27  28  30  31  32  35  37  42  43  44  45  46  47 0
 3-21G
 ****
 48  49 0
 3-21G
 ****


