%nproc=1
%NoSave
%Mem=1900MB
#P OB98/GEN NMR

erre ene a

0 1
  C       22.043     -68.048      14.756
  O       22.447     -66.766      15.194
  H       20.979     -68.197      14.960
  H       22.207     -68.118      13.678
  H       22.632     -68.823      15.254
  P       22.313     -66.470      16.765
  C       19.804     -65.869      16.495
  O       20.767     -66.695      17.131
  C       18.427     -66.095      17.113
  O       18.036     -67.474      16.964
  C       18.344     -65.803      18.608
  O       18.218     -64.414      18.868
  C       17.074     -66.557      18.973
  O       15.923     -65.780      18.594
  C       17.179     -67.808      18.088
  N       16.128     -71.774      21.144
  C       15.336     -70.846      20.566
  N       15.686     -69.832      19.748
  C       17.010     -69.841      19.526
  C       17.943     -70.733      20.025
  C       17.458     -71.738      20.879
  N       18.290     -72.642      21.519
  N       19.213     -70.411      19.587
  C       19.049     -69.331      18.852
  N       17.736     -68.953      18.780
  O       22.497     -64.880      16.844
  O       23.294     -67.185      17.633
  H       15.764     -65.143      19.316
  H       23.422     -64.676      17.074
  H       14.278     -70.925      20.794
  H       19.846     -68.791      18.361
  H       16.208     -68.106      17.677
  H       16.988     -66.761      20.043
  H       19.189     -66.242      19.151
  H       17.704     -65.484      16.557
  H       19.764     -66.109      15.428
  H       17.924     -72.969      22.409
  H       19.273     -72.397      21.492
  H       20.106     -64.824      16.613
  P       19.031     -63.811      20.113
  C       17.209     -64.532      21.801
  O       18.569     -64.645      21.406
  O       18.351     -62.378      20.321
  O       20.502     -63.688      19.913
  H       19.033     -61.680      20.279
  H       17.039     -65.134      22.669
  H       16.577     -64.867      21.005
  H       16.987     -63.510      22.027

 6  7  8  9  10  11  12  13  14  15  25  28  32  33  34  35 0
 6-311+G(2d,p)
 ****
 36  39  40 0
 6-311+G(2d,p)
 ****
 1  2  3  4  5  16  17  18  19  20  21  22  23  24 0
 3-21G
 ****
 26  27  29  30  31  37  38  41  42  43  44  45  46  47  48 0
 3-21G
 ****


