%nproc=1
%NoSave
%Mem=1900MB
#P OB98/GEN NMR

erre ene a

0 1
  C      277.467    -114.180    -119.102
  O      276.644    -113.533    -118.150
  P      275.081    -113.929    -118.149
  C      273.161    -113.469    -116.439
  O      274.550    -113.651    -116.662
  C      272.899    -113.303    -114.940
  O      273.130    -114.550    -114.248
  C      273.787    -112.267    -114.260
  O      273.273    -110.959    -114.468
  C      273.732    -112.725    -112.808
  O      272.528    -112.264    -112.168
  C      273.727    -114.256    -112.959
  N      276.994    -116.604    -109.893
  C      275.804    -115.967    -109.597
  N      275.401    -115.999    -108.308
  N      275.067    -115.353    -110.490
  C      275.595    -115.392    -111.735
  C      276.774    -115.975    -112.147
  C      277.548    -116.693    -111.162
  O      278.561    -117.355    -111.384
  N      276.989    -115.784    -113.488
  C      275.931    -115.109    -113.889
  N      275.043    -114.865    -112.872
  O      275.113    -115.520    -118.265
  O      274.267    -113.285    -119.224
  H      272.493    -111.289    -112.210
  H      274.963    -115.804    -119.185
  H      277.509    -117.075    -109.165
  H      275.748    -114.798    -114.906
  H      273.106    -114.741    -112.195
  H      274.564    -112.334    -112.220
  H      275.929    -116.431    -107.563
  H      274.815    -112.345    -114.634
  H      274.535    -115.534    -108.074
  H      271.843    -113.043    -114.811
  H      272.622    -114.347    -116.803
  H      272.819    -112.586    -116.992
  P      274.302    -109.736    -114.327
  C      274.192    -107.165    -114.706
  O      273.533    -108.413    -114.816
  O      275.370    -110.009    -115.486
  O      274.960    -109.631    -112.993
  H      276.257    -109.736    -115.185
  H      273.829    -106.511    -115.501
  H      275.276    -107.269    -114.795
  H      273.951    -106.720    -113.738
  H      278.473    -113.832    -118.999
  H      277.113    -113.960    -120.088
  H      277.437    -115.237    -118.940

 3  4  5  6  7  8  9  10  11  12  23  26  30  31 0
 6-311+G(2d,p)
 ****
 33  35  36  37  38 0
 6-311+G(2d,p)
 ****
 1  2  13  14  15  16  17  18  19  20  21  22  24  25 0
 3-21G
 ****
 27  28  29  32  34  39  40  41  42  43  44  45  46  47  48  49 0
 3-21G
 ****


