%nproc=1
%NoSave
%Mem=1900MB
#P OB98/GEN NMR

erre ene a

0 1
  C     -248.315     798.152     457.396
  O     -247.742     799.342     457.895
  H     -249.300     798.385     456.984
  H     -248.438     797.435     458.212
  H     -247.700     797.713     456.610
  P     -246.186     799.355     458.262
  C     -245.441     800.637     456.150
  O     -245.548     800.649     457.566
  C     -244.217     801.442     455.686
  O     -243.938     801.125     454.297
  C     -244.480     802.951     455.757
  O     -243.283     803.695     455.960
  C     -245.024     803.266     454.368
  O     -244.867     804.635     454.000
  C     -244.218     802.288     453.502
  N     -245.111     803.359     448.604
  C     -244.493     804.133     449.564
  N     -244.050     805.354     449.160
  N     -244.338     803.766     450.809
  C     -244.897     802.551     451.074
  C     -245.552     801.702     450.216
  C     -245.680     802.118     448.826
  O     -246.239     801.476     447.943
  N     -245.975     800.570     450.855
  C     -245.586     800.729     452.108
  N     -244.900     801.906     452.284
  O     -245.580     798.155     457.385
  O     -245.862     799.184     459.717
  H     -243.911     804.795     453.891
  H     -244.742     797.842     457.765
  H     -245.181     803.682     447.651
  H     -245.758     800.024     452.909
  H     -243.253     802.736     453.217
  H     -246.097     803.043     454.360
  H     -244.325     805.749     448.281
  H     -245.199     803.218     456.525
  H     -243.887     806.042     449.903
  H     -243.329     801.147     456.262
  H     -246.360     801.079     455.756
  H     -245.388     799.610     455.780
  P     -243.114     804.522     457.324
  C     -241.426     802.832     458.470
  O     -241.727     804.134     458.024
  O     -244.218     803.884     458.294
  O     -243.281     805.997     457.181
  H     -244.894     804.547     458.514
  H     -240.447     802.820     458.901
  H     -241.460     802.155     457.642
  H     -242.143     802.532     459.205

 6  7  8  9  10  11  12  13  14  15  26  29  33  34 0
 6-311+G(2d,p)
 ****
 36  38  39  40  41 0
 6-311+G(2d,p)
 ****
 1  2  3  4  5  16  17  18  19  20  21  22  23  24  25 0
 3-21G
 ****
 27  28  30  31  32  35  37  42  43  44  45  46  47 0
 3-21G
 ****
 48  49 0
 3-21G
 ****


