%nproc=1
%NoSave
%Mem=1900MB
#P OB98/GEN NMR

erre ene a

0 1
  C     -143.372       8.737     615.143
  O     -143.894       9.283     613.948
  H     -144.070       8.922     615.956
  H     -142.416       9.205     615.381
  H     -143.236       7.652     615.039
  P     -143.150       8.924     612.575
  C     -143.213      11.220     611.355
  O     -143.754       9.910     611.452
  C     -143.940      12.004     610.271
  O     -143.910      11.224     609.038
  C     -145.423      12.292     610.583
  O     -145.745      13.599     610.050
  C     -146.166      11.235     609.796
  O     -147.498      11.575     609.486
  C     -145.262      11.124     608.547
  N     -145.476       9.879     607.821
  C     -145.401       9.930     606.421
  O     -145.088      10.915     605.777
  N     -145.698       8.757     605.778
  C     -146.089       7.584     606.369
  O     -146.360       6.564     605.730
  C     -146.156       7.599     607.836
  C     -145.861       8.723     608.488
  O     -143.781       7.501     612.187
  O     -141.660       8.892     612.639
  H     -143.251       6.777     612.577
  H     -147.980      11.715     610.332
  H     -145.657       8.770     604.771
  H     -146.469       6.687     608.345
  H     -145.909       8.769     609.565
  H     -145.443      11.980     607.884
  H     -146.164      10.291     610.358
  H     -145.663      12.270     611.650
  H     -143.392      12.939     610.069
  H     -142.145      11.164     611.106
  H     -143.320      11.732     612.331
  P     -146.561      14.597     611.010
  C     -148.141      16.173     609.635
  O     -146.838      15.902     610.122
  O     -145.410      15.030     612.034
  O     -147.752      13.968     611.635
  H     -144.532      15.113     611.615
  H     -148.128      17.080     609.068
  H     -148.815      16.277     610.459
  H     -148.463      15.366     609.010

 6  7  8  9  10  11  12  13  14  15  16  27  31  32  33  34  35 0
 6-311+G(2d,p)
 ****
 36  37 0
 6-311+G(2d,p)
 ****
 1  2  3  4  5  17  18  19  20  21  22  23  24  25 0
 3-21G
 ****
 26  28  29  30  38  39  40  41  42  43  44  45 0
 3-21G
 ****


