%nproc=1
%NoSave
%Mem=1900MB
#P OB98/GEN NMR

erre ene a

0 1
  C       26.729     -60.843      17.664
  O       28.076     -60.939      18.083
  H       26.324     -59.867      17.939
  H       26.692     -60.949      16.577
  H       26.128     -61.638      18.117
  P       28.340     -60.985      19.665
  C       29.304     -63.354      20.123
  O       29.580     -61.985      19.872
  C       30.186     -64.246      19.247
  O       29.811     -64.053      17.858
  C       31.682     -63.938      19.372
  O       32.412     -65.165      19.327
  C       31.978     -63.114      18.130
  O       33.345     -63.191      17.745
  C       31.006     -63.724      17.124
  N       30.630     -63.254      12.054
  C       30.855     -64.323      12.848
  N       30.935     -64.364      14.195
  C       30.703     -63.147      14.718
  C       30.462     -61.966      14.038
  C       30.438     -62.046      12.635
  N       30.246     -60.956      11.817
  N       30.311     -60.917      14.927
  C       30.458     -61.460      16.119
  N       30.700     -62.803      16.044
  O       27.084     -61.830      20.195
  O       28.451     -59.663      20.344
  H       33.525     -64.101      17.430
  H       26.302     -61.248      20.251
  H       30.997     -65.270      12.334
  H       30.408     -60.928      17.060
  H       31.397     -64.643      16.666
  H       31.734     -62.062      18.318
  H       31.928     -63.402      20.290
  H       29.975     -65.295      19.489
  H       28.250     -63.552      19.901
  H       30.299     -61.096      10.822
  H       30.162     -60.038      12.232
  H       29.494     -63.573      21.181
  P       33.263     -65.549      20.633
  C       31.480     -66.871      21.971
  O       32.691     -66.924      21.232
  O       32.811     -64.449      21.705
  O       34.741     -65.520      20.412
  H       33.596     -64.043      22.117
  H       31.223     -67.854      22.305
  H       30.698     -66.491      21.348
  H       31.606     -66.228      22.817

 6  7  8  9  10  11  12  13  14  15  25  28  32  33  34  35 0
 6-311+G(2d,p)
 ****
 36  39  40 0
 6-311+G(2d,p)
 ****
 1  2  3  4  5  16  17  18  19  20  21  22  23  24 0
 3-21G
 ****
 26  27  29  30  31  37  38  41  42  43  44  45  46  47 0
 3-21G
 ****
 48 0
 3-21G
 ****


