%nproc=1
%NoSave
%Mem=1900MB
#P OB98/GEN NMR

erre ene a

0 1
  C     -128.599      38.323      76.458
  O     -128.061      37.899      75.205
  P     -126.479      37.647      75.080
  C     -126.347      35.232      75.953
  O     -126.222      36.082      74.820
  C     -126.758      33.803      75.569
  O     -127.989      33.809      74.793
  C     -125.709      33.039      74.750
  O     -125.773      31.666      75.158
  C     -126.224      33.203      73.332
  O     -125.665      32.252      72.436
  C     -127.732      33.089      73.571
  N     -128.517      33.610      72.464
  C     -128.530      32.869      71.281
  O     -127.812      31.872      71.173
  N     -129.328      33.292      70.245
  C     -129.936      34.434      70.335
  N     -130.735      34.812      69.297
  C     -129.799      35.334      71.497
  C     -129.104      34.851      72.523
  O     -125.648      38.249      76.165
  O     -126.127      38.301      73.657
  H     -125.913      31.351      72.732
  H     -125.232      38.694      73.704
  H     -130.257      36.312      71.489
  H     -128.950      35.430      73.422
  H     -128.022      32.040      73.743
  H     -125.970      34.205      72.961
  H     -124.689      33.410      74.895
  H     -126.966      33.252      76.498
  H     -130.798      34.195      68.496
  H     -127.095      35.650      76.635
  H     -131.282      35.662      69.312
  H     -125.399      35.231      76.506
  P     -124.415      30.813      75.223
  C     -123.634      31.194      77.674
  O     -124.219      30.315      76.734
  O     -123.299      31.963      75.104
  O     -124.219      29.799      74.140
  H     -122.478      31.573      74.744
  H     -123.836      30.809      78.681
  H     -124.060      32.197      77.600
  H     -122.553      31.236      77.523
  H     -129.658      38.443      76.369
  H     -128.156      39.256      76.739
  H     -128.385      37.587      77.205

 3  4  5  6  7  8  9  10  11  12  13  23  27  28  29  30  32 0
 6-311+G(2d,p)
 ****
 34  35 0
 6-311+G(2d,p)
 ****
 1  2  14  15  16  17  18  19  20  21  22  24  25  26 0
 3-21G
 ****
 31  33  36  37  38  39  40  41  42  43  44  45  46 0
 3-21G
 ****


