%nproc=1
%NoSave
%Mem=1900MB
#P OB98/GEN NMR

erre ene a

0 1
  C     -527.828    -651.109    -279.265
  O     -528.601    -651.032    -278.086
  H     -528.492    -651.041    -280.129
  H     -527.309    -652.073    -279.300
  H     -527.099    -650.295    -279.311
  P     -527.813    -650.805    -276.710
  C     -529.761    -649.644    -275.458
  O     -528.911    -650.776    -275.536
  C     -531.003    -649.842    -276.322
  O     -531.633    -651.096    -275.957
  C     -532.052    -648.732    -276.178
  O     -532.634    -648.470    -277.457
  C     -533.094    -649.353    -275.262
  O     -534.387    -648.770    -275.428
  C     -533.015    -650.823    -275.666
  N     -537.179    -652.476    -273.363
  C     -537.037    -651.664    -274.467
  N     -538.171    -651.223    -275.048
  N     -535.878    -651.320    -274.964
  C     -534.828    -651.866    -274.305
  C     -534.835    -652.679    -273.191
  C     -536.124    -653.031    -272.634
  O     -536.320    -653.725    -271.644
  N     -533.563    -652.997    -272.797
  C     -532.780    -652.380    -273.670
  N     -533.503    -651.687    -274.609
  O     -527.331    -649.281    -276.811
  O     -526.661    -651.723    -276.471
  H     -534.928    -649.042    -274.655
  H     -526.358    -649.242    -276.835
  H     -538.093    -652.700    -273.005
  H     -531.705    -652.394    -273.667
  H     -533.608    -651.037    -276.559
  H     -532.794    -649.214    -274.212
  H     -539.089    -651.485    -274.749
  H     -531.643    -647.809    -275.764
  H     -538.089    -650.658    -275.886
  H     -530.686    -649.945    -277.369
  H     -529.214    -648.761    -275.809
  H     -530.062    -649.485    -274.413
  P     -532.612    -646.946    -277.960
  C     -533.181    -647.358    -280.457
  O     -533.614    -646.819    -279.215
  O     -531.159    -646.803    -278.621
  O     -532.819    -645.944    -276.874
  H     -530.590    -646.249    -278.049
  H     -533.939    -647.205    -281.196
  H     -532.998    -648.406    -280.346
  H     -532.280    -646.869    -280.763

 6  7  8  9  10  11  12  13  14  15  26  29  33  34 0
 6-311+G(2d,p)
 ****
 36  38  39  40  41 0
 6-311+G(2d,p)
 ****
 1  2  3  4  5  16  17  18  19  20  21  22  23  24  25 0
 3-21G
 ****
 27  28  30  31  32  35  37  42  43  44  45  46  47 0
 3-21G
 ****
 48  49 0
 3-21G
 ****


