%nproc=1
%NoSave
%Mem=1900MB
#P OB98/GEN NMR

erre ene a

0 1
  C     -389.323     763.372     161.487
  O     -388.332     764.379     161.550
  H     -390.270     763.789     161.827
  H     -389.054     762.530     162.132
  H     -389.447     763.019     160.454
  P     -386.842     764.009     161.100
  C     -386.318     763.171     163.488
  O     -385.952     764.054     162.432
  C     -385.725     763.656     164.810
  O     -384.294     763.559     164.790
  C     -386.062     765.122     165.126
  O     -387.370     765.224     165.675
  C     -384.964     765.445     166.134
  O     -385.295     764.866     167.409
  C     -383.756     764.716     165.514
  N     -379.949     768.031     165.054
  C     -380.507     767.473     166.189
  N     -379.998     767.889     167.374
  N     -381.476     766.604     166.174
  C     -381.928     766.327     164.916
  C     -381.464     766.833     163.714
  C     -380.336     767.747     163.753
  O     -379.802     768.257     162.767
  N     -382.205     766.375     162.665
  C     -383.089     765.566     163.208
  N     -382.981     765.515     164.586
  O     -386.269     764.813     159.959
  O     -386.912     762.448     160.754
  H     -384.689     765.258     168.065
  H     -387.095     762.303     159.814
  H     -379.209     768.707     165.140
  H     -383.831     764.994     162.666
  H     -383.065     764.335     166.273
  H     -384.822     766.512     166.281
  H     -379.469     768.748     167.448
  H     -385.932     765.766     164.254
  H     -380.434     767.539     168.217
  H     -386.092     763.004     165.606
  H     -385.912     762.182     163.242
  H     -387.408     763.105     163.570
  P     -388.518     766.082     164.936
  C     -387.104     768.228     165.207
  O     -388.330     767.575     165.485
  O     -389.887     765.532     165.054
  O     -387.997     766.205     163.418
  H     -388.289     765.457     162.842
  H     -387.119     769.210     165.631
  H     -386.970     768.299     164.148
  H     -386.297     767.668     165.632

 6  7  8  9  10  11  12  13  14  15  26  29  33  34 0
 6-311+G(2d,p)
 ****
 36  38  39  40  41 0
 6-311+G(2d,p)
 ****
 1  2  3  4  5  16  17  18  19  20  21  22  23  24  25 0
 3-21G
 ****
 27  28  30  31  32  35  37  42  43  44  45  46  47 0
 3-21G
 ****
 48  49 0
 3-21G
 ****


