%nproc=1
%NoSave
%Mem=1900MB
#P OB98/GEN NMR

erre ene a

0 1
  C      343.837     135.557     319.320
  O      343.626     134.196     318.943
  P      344.617     133.541     317.865
  C      346.715     132.863     319.210
  O      345.506     132.422     318.599
  C      347.643     131.671     319.490
  O      348.933     132.175     319.931
  C      347.168     130.730     320.600
  O      346.317     129.640     320.244
  C      348.488     130.115     321.064
  O      348.847     129.023     320.195
  C      349.490     131.254     320.892
  N      352.592     131.434     324.958
  C      352.570     130.624     323.877
  N      351.705     130.644     322.838
  C      350.808     131.630     322.983
  C      350.710     132.532     324.031
  C      351.657     132.409     325.060
  N      351.677     133.221     326.167
  N      349.651     133.395     323.834
  C      349.108     133.003     322.696
  N      349.778     131.952     322.137
  O      345.374     134.498     317.005
  O      343.620     132.649     316.978
  H      349.034     129.415     319.322
  H      343.908     132.690     316.044
  H      353.341     129.860     323.842
  H      348.234     133.455     322.244
  H      350.451     130.907     320.496
  H      348.427     129.706     322.076
  H      346.712     131.290     321.426
  H      347.797     131.108     318.563
  H      346.484     133.380     320.145
  H      352.361     133.036     326.883
  H      350.950     133.915     326.288
  H      347.170     133.598     318.544
  P      345.217     129.071     321.262
  C      342.981     130.388     320.943
  O      343.801     129.313     320.547
  O      345.308     129.600     322.649
  O      345.415     127.490     321.137
  H      345.152     127.117     320.278
  H      342.181     130.510     320.202
  H      343.553     131.316     320.999
  H      342.530     130.170     321.914
  H      343.101     135.846     320.041
  H      343.755     136.183     318.456
  H      344.813     135.662     319.745

 3  4  5  6  7  8  9  10  11  12  22  25  29  30  31  32 0
 6-311+G(2d,p)
 ****
 33  36  37 0
 6-311+G(2d,p)
 ****
 1  2  13  14  15  16  17  18  19  20  21  23  24  26 0
 3-21G
 ****
 27  28  34  35  38  39  40  41  42  43  44  45  46  47  48 0
 3-21G
 ****


