%nproc=1
%NoSave
%Mem=1900MB
#P OB98/GEN NMR

erre ene a

0 1
  C      173.793    -180.496     205.077
  O      172.497    -180.327     204.500
  P      172.208    -179.054     203.575
  C      172.031    -177.463     205.607
  O      172.648    -177.722     204.349
  C      172.403    -176.058     206.092
  O      173.832    -175.921     206.275
  C      172.035    -174.969     205.092
  O      170.659    -174.713     204.904
  C      172.906    -173.808     205.544
  O      172.304    -173.091     206.622
  C      174.179    -174.541     206.023
  N      175.283    -174.438     205.068
  C      175.613    -173.152     204.653
  O      175.004    -172.148     205.015
  N      176.655    -173.061     203.769
  C      177.360    -174.108     203.247
  O      178.269    -173.969     202.441
  C      176.947    -175.444     203.705
  C      175.946    -175.549     204.581
  O      170.856    -179.006     202.943
  O      173.343    -179.178     202.441
  H      172.995    -172.520     207.011
  H      172.934    -178.946     201.583
  H      176.914    -172.136     203.463
  H      177.481    -176.296     203.308
  H      175.628    -176.523     204.931
  H      174.525    -174.126     206.977
  H      173.072    -173.090     204.735
  H      172.414    -175.278     204.104
  H      171.927    -175.887     207.060
  H      172.347    -178.211     206.334
  H      170.947    -177.573     205.499
  P      169.866    -175.104     203.567
  C      170.476    -172.954     202.254
  O      170.562    -174.359     202.330
  O      168.375    -175.087     203.625
  O      170.351    -176.623     203.346
  H      169.617    -177.123     202.939
  H      170.988    -172.622     201.343
  H      170.965    -172.495     203.118
  H      169.431    -172.637     202.203
  H      173.809    -181.393     205.661
  H      174.016    -179.658     205.704
  H      174.524    -180.564     204.299

 3  4  5  6  7  8  9  10  11  12  13  23  28  29  30  31  32 0
 6-311+G(2d,p)
 ****
 33  34 0
 6-311+G(2d,p)
 ****
 1  2  14  15  16  17  18  19  20  21  22  24  25  26  27 0
 3-21G
 ****
 35  36  37  38  39  40  41  42  43  44  45 0
 3-21G
 ****


