%nproc=1
%NoSave
%Mem=1900MB
#P OB98/GEN NMR

erre ene a

0 1
  C      -13.981     -75.368    -242.734
  O      -13.367     -75.779    -243.959
  P      -11.871     -75.264    -244.244
  C      -12.612     -73.030    -245.388
  O      -11.963     -73.661    -244.297
  C      -12.059     -71.619    -245.608
  O      -12.254     -70.819    -244.400
  C      -10.571     -71.568    -245.965
  O      -10.406     -70.505    -246.916
  C       -9.914     -71.201    -244.647
  O       -8.630     -70.624    -244.834
  C      -10.969     -70.257    -244.059
  N      -10.829     -70.079    -242.617
  C       -9.651     -69.498    -242.165
  O       -8.718     -69.211    -242.914
  N       -9.556     -69.301    -240.812
  C      -10.476     -69.694    -239.884
  O      -10.347     -69.491    -238.683
  C      -11.653     -70.408    -240.410
  C      -11.770     -70.565    -241.729
  O      -11.672     -75.700    -245.767
  O      -10.872     -75.820    -243.285
  H      -12.475     -75.610    -246.306
  H       -8.221     -70.464    -243.960
  H       -8.723     -68.850    -240.468
  H      -12.374     -70.785    -239.699
  H      -12.609     -71.105    -242.149
  H      -10.907     -69.272    -244.536
  H       -9.805     -72.095    -244.023
  H      -10.202     -72.504    -246.392
  H      -12.650     -71.145    -246.403
  H      -13.685     -72.961    -245.188
  H      -12.491     -73.648    -246.283
  P      -10.845     -70.776    -248.442
  C       -8.541     -71.617    -249.357
  O       -9.876     -71.915    -249.015
  O      -10.278     -69.442    -249.133
  O      -12.308     -70.962    -248.656
  H       -9.368     -69.231    -248.870
  H       -7.996     -72.555    -249.497
  H       -8.048     -71.041    -248.568
  H       -8.513     -71.054    -250.295
  H      -14.967     -75.779    -242.674
  H      -14.037     -74.300    -242.704
  H      -13.398     -75.718    -241.908

 3  4  5  6  7  8  9  10  11  12  13  24  28  29  30  31  32 0
 6-311+G(2d,p)
 ****
 33  34 0
 6-311+G(2d,p)
 ****
 1  2  14  15  16  17  18  19  20  21  22  23  25  26  27 0
 3-21G
 ****
 35  36  37  38  39  40  41  42  43  44  45 0
 3-21G
 ****


