%nproc=1
%NoSave
%Mem=1900MB
#P OB98/GEN NMR

erre ene a

0 1
  C     -154.703     266.042     363.780
  O     -153.425     265.833     364.384
  P     -152.868     264.336     364.525
  C     -152.748     262.493     366.329
  O     -153.045     263.855     366.051
  C     -153.206     262.110     367.741
  O     -152.362     262.751     368.748
  C     -154.653     262.550     368.032
  O     -155.294     261.612     368.907
  C     -154.472     263.851     368.785
  O     -155.630     264.180     369.551
  C     -153.226     263.527     369.609
  N     -153.562     267.713     372.546
  C     -154.416     266.671     372.360
  N     -154.244     265.586     371.577
  C     -153.047     265.620     370.965
  C     -152.077     266.603     371.066
  C     -152.378     267.701     371.898
  N     -151.523     268.771     372.071
  N     -150.982     266.300     370.284
  C     -151.306     265.167     369.684
  N     -152.527     264.710     370.086
  O     -151.515     264.091     363.940
  O     -153.986     263.471     363.762
  H     -155.434     265.012     370.032
  H     -153.546     262.785     363.222
  H     -155.355     266.734     372.897
  H     -150.703     264.661     368.943
  H     -153.461     262.907     370.485
  H     -154.281     264.666     368.079
  H     -155.274     262.674     367.138
  H     -153.091     261.031     367.875
  H     -151.669     262.324     366.228
  H     -151.874     269.558     372.591
  H     -150.702     268.843     371.482
  H     -153.219     261.861     365.569
  P     -156.154     260.448     368.195
  C     -158.669     260.228     367.512
  O     -157.663     260.979     368.149
  O     -155.945     259.100     368.801
  O     -155.654     260.554     366.676
  H     -155.674     261.454     366.300
  H     -159.635     260.699     367.707
  H     -158.689     259.206     367.904
  H     -158.493     260.207     366.433
  H     -154.923     267.089     363.764
  H     -155.453     265.529     364.345
  H     -154.690     265.665     362.779

 3  4  5  6  7  8  9  10  11  12  22  25  29  30  31  32 0
 6-311+G(2d,p)
 ****
 33  36  37 0
 6-311+G(2d,p)
 ****
 1  2  13  14  15  16  17  18  19  20  21  23  24  26 0
 3-21G
 ****
 27  28  34  35  38  39  40  41  42  43  44  45  46  47  48 0
 3-21G
 ****


