%nproc=1
%NoSave
%Mem=1900MB
#P OB98/GEN NMR

erre ene a

0 1
  C     -435.548    -223.196    -889.680
  O     -434.570    -224.069    -890.280
  P     -434.653    -224.320    -891.860
  C     -436.986    -225.482    -891.750
  O     -435.613    -225.586    -892.110
  C     -437.831    -226.442    -892.590
  O     -437.884    -226.067    -893.980
  C     -437.347    -227.877    -892.570
  O     -437.773    -228.565    -891.400
  C     -438.029    -228.463    -893.790
  O     -439.386    -228.782    -893.480
  C     -437.953    -227.270    -894.770
  N     -435.973    -229.582    -898.910
  C     -437.122    -229.788    -898.210
  N     -437.573    -229.152    -897.090
  C     -436.705    -228.183    -896.740
  C     -435.498    -227.847    -897.340
  C     -435.149    -228.598    -898.490
  N     -433.981    -228.351    -899.180
  N     -434.890    -226.804    -896.690
  C     -435.730    -226.514    -895.700
  N     -436.821    -227.320    -895.690
  O     -433.197    -224.894    -892.230
  O     -434.974    -223.086    -892.640
  H     -439.385    -229.380    -892.730
  H     -432.942    -224.584    -893.120
  H     -437.751    -230.598    -898.590
  H     -435.576    -225.713    -894.960
  H     -438.879    -227.196    -895.380
  H     -437.536    -229.376    -894.150
  H     -436.253    -227.928    -892.680
  H     -438.874    -226.404    -892.200
  H     -437.328    -224.462    -891.890
  H     -433.795    -228.939    -900.000
  H     -433.365    -227.613    -898.880
  H     -437.089    -225.690    -890.670
  P     -436.782    -228.555    -890.120
  C     -435.945    -230.902    -890.920
  O     -436.420    -230.090    -889.840
  O     -437.766    -228.159    -888.910
  O     -435.628    -227.612    -890.260
  H     -437.263    -227.668    -888.230
  H     -435.451    -231.778    -890.490
  H     -435.206    -230.337    -891.500
  H     -436.776    -231.204    -891.540
  H     -435.366    -223.126    -888.628
  H     -436.528    -223.590    -889.847
  H     -435.475    -222.223    -890.120

 3  4  5  6  7  8  9  10  11  12  22  25  29  30  31  32 0
 6-311+G(2d,p)
 ****
 33  36  37 0
 6-311+G(2d,p)
 ****
 1  2  13  14  15  16  17  18  19  20  21  23  24  26 0
 3-21G
 ****
 27  28  34  35  38  39  40  41  42  43  44  45  46  47  48 0
 3-21G
 ****


