%nproc=1
%NoSave
%Mem=1900MB
#P OB98/GEN NMR

erre ene a

0 1
  C      285.103     386.259     173.699
  O      283.699     386.235     173.563
  H      285.377     387.110     174.335
  H      285.578     386.393     172.722
  H      285.467     385.341     174.172
  P      283.038     385.077     172.670
  C      281.543     384.783     174.768
  O      281.599     384.823     173.350
  C      280.109     384.557     175.232
  O      279.546     383.367     174.631
  C      279.949     384.333     176.736
  O      280.106     385.513     177.506
  C      278.523     383.808     176.770
  O      277.604     384.892     176.587
  C      278.534     382.859     175.545
  N      278.827     381.474     175.903
  C      277.736     380.595     175.951
  O      276.597     380.988     175.689
  N      277.953     379.282     176.294
  C      279.152     378.888     176.611
  N      279.315     377.577     176.967
  C      280.326     379.784     176.607
  C      280.089     381.046     176.248
  O      283.871     383.853     172.459
  O      282.626     385.811     171.310
  H      277.612     385.413     177.416
  H      282.218     385.133     170.712
  H      281.294     379.421     176.907
  H      280.902     381.768     176.225
  H      277.569     382.892     175.017
  H      278.270     383.314     177.718
  H      280.624     383.541     177.083
  H      279.511     385.409     174.887
  H      278.491     376.992     176.961
  H      281.936     385.729     175.155
  H      280.187     377.209     177.293
  H      282.166     383.960     175.143
  P      281.011     385.397     178.834
  C      281.823     387.871     178.664
  O      281.145     386.879     179.416
  O      282.464     385.076     178.253
  O      280.553     384.377     179.828
  H      282.653     384.111     178.300
  H      281.815     388.795     179.204
  H      281.331     388.004     177.723
  H      282.834     387.563     178.498

 6  7  8  9  10  11  12  13  14  15  16  26  30  31  32  33  35 0
 6-311+G(2d,p)
 ****
 37  38 0
 6-311+G(2d,p)
 ****
 1  2  3  4  5  17  18  19  20  21  22  23  24  25 0
 3-21G
 ****
 27  28  29  34  36  39  40  41  42  43  44  45  46 0
 3-21G
 ****


