%nproc=1
%NoSave
%Mem=1900MB
#P OB98/GEN NMR

erre ene a

0 1
  C     -894.890    -557.228    -928.364
  O     -896.060    -556.836    -927.670
  H     -895.010    -557.039    -929.437
  H     -894.050    -556.637    -927.999
  H     -894.680    -558.289    -928.194
  P     -897.420    -557.566    -928.094
  C     -897.550    -559.416    -926.264
  O     -897.250    -559.088    -927.617
  C     -898.000    -560.875    -926.193
  O     -899.170    -561.083    -927.007
  C     -896.950    -561.860    -926.695
  O     -895.960    -562.166    -925.724
  C     -897.830    -563.060    -926.993
  O     -898.160    -563.744    -925.774
  C     -899.070    -562.401    -927.605
  N     -899.230    -564.933    -932.058
  C     -899.360    -565.349    -930.775
  N     -899.340    -564.612    -929.650
  C     -899.140    -563.315    -929.931
  C     -898.980    -562.745    -931.185
  C     -899.030    -563.618    -932.286
  N     -898.850    -563.197    -933.587
  N     -898.780    -561.382    -931.080
  C     -898.830    -561.134    -929.784
  N     -899.010    -562.278    -929.051
  O     -897.330    -557.672    -929.685
  O     -898.680    -556.912    -927.624
  H     -898.540    -563.075    -925.168
  H     -898.200    -557.887    -930.064
  H     -899.530    -566.411    -930.649
  H     -898.730    -560.163    -929.329
  H     -900.000    -562.951    -927.361
  H     -897.330    -563.806    -927.640
  H     -896.490    -561.513    -927.636
  H     -898.270    -561.099    -925.150
  H     -898.360    -558.768    -925.913
  H     -898.750    -563.916    -934.292
  H     -898.550    -562.250    -933.770
  H     -896.670    -559.256    -925.651
  P     -894.580    -562.799    -926.252
  C     -893.380    -560.491    -926.385
  O     -893.850    -561.643    -927.095
  O     -895.070    -563.824    -927.374
  O     -893.760    -563.466    -925.189
  H     -894.470    -564.596    -927.424
  H     -892.919    -559.812    -927.072
  H     -892.665    -560.793    -925.649
  H     -894.205    -560.007    -925.904

 6  7  8  9  10  11  12  13  14  15  25  28  32  33  34  35 0
 6-311+G(2d,p)
 ****
 36  39  40 0
 6-311+G(2d,p)
 ****
 1  2  3  4  5  16  17  18  19  20  21  22  23  24 0
 3-21G
 ****
 26  27  29  30  31  37  38  41  42  43  44  45  46  47 0
 3-21G
 ****
 48 0
 3-21G
 ****


