%nproc=1
%NoSave
%Mem=1900MB
#P OB98/GEN NMR

erre ene a

0 1
  C     -891.580    -894.490    -891.070
  O     -891.700    -895.870    -891.210
  P     -893.090    -896.370    -891.860
  C     -891.940    -897.820    -893.670
  O     -892.840    -896.760    -893.410
  C     -892.070    -898.360    -895.120
  O     -893.280    -899.060    -895.320
  C     -891.960    -897.200    -896.150
  O     -891.350    -897.670    -897.350
  C     -893.510    -896.980    -896.500
  O     -893.590    -896.310    -897.710
  C     -893.990    -898.430    -896.410
  N     -895.380    -898.500    -896.260
  C     -896.210    -898.250    -897.430
  O     -895.700    -897.910    -898.460
  N     -897.580    -898.400    -897.310
  C     -898.120    -898.720    -896.170
  N     -899.480    -898.820    -896.150
  C     -897.320    -898.880    -894.920
  C     -896.020    -898.810    -895.040
  O     -893.990    -895.070    -891.940
  O     -893.740    -897.470    -891.020
  H     -892.980    -896.860    -898.410
  H     -894.870    -895.260    -891.560
  H     -897.810    -899.140    -893.990
  H     -895.310    -898.950    -894.200
  H     -893.710    -898.990    -897.360
  H     -893.970    -896.360    -895.670
  H     -891.510    -896.280    -895.820
  H     -891.230    -899.020    -895.330
  H     -899.960    -898.710    -897.000
  H     -892.160    -898.690    -893.000
  H     -900.000    -899.030    -895.280
  H     -890.930    -897.490    -893.480
  P     -889.800    -897.120    -897.600
  C     -889.460    -899.200    -899.100
  O     -889.020    -898.450    -898.000
  O     -889.370    -896.840    -896.140
  O     -889.660    -895.970    -898.520
  H     -888.440    -896.480    -896.160
  H     -888.720    -900.000    -899.370
  H     -889.560    -898.560    -900.000
  H     -890.440    -899.700    -898.940
  H     -890.631    -894.257    -890.633
  H     -892.363    -894.126    -890.438
  H     -891.654    -894.026    -892.031

 3  4  5  6  7  8  9  10  11  12  13  21  23  27  28  29  30  32 0
 6-311+G(2d,p)
 ****
 34  35 0
 6-311+G(2d,p)
 ****
 1  2  14  15  16  17  18  19  20  22  24  25  26 0
 3-21G
 ****
 31  33  36  37  38  39  40  41  42  43  44  45  46 0
 3-21G
 ****


