%nproc=1
%NoSave
%Mem=1900MB
#P OB98/GEN NMR

erre ene a

0 1
  C       85.332    -493.829      84.831
  O       85.668    -493.247      83.585
  H       84.274    -494.113      84.845
  H       85.940    -494.724      84.977
  H       85.540    -493.124      85.643
  P       84.804    -491.971      83.141
  C       83.198    -493.611      81.929
  O       83.324    -492.514      82.823
  C       82.150    -494.590      82.443
  O       82.634    -495.260      83.629
  C       80.828    -493.957      82.852
  O       80.007    -493.661      81.728
  C       80.229    -495.067      83.705
  O       79.639    -496.067      82.851
  C       81.469    -495.644      84.408
  N       81.179    -496.880      89.385
  C       80.933    -497.598      88.260
  N       81.018    -497.202      86.974
  C       81.420    -495.920      86.896
  C       81.707    -495.064      87.951
  C       81.562    -495.592      89.251
  N       81.797    -494.848      90.385
  N       82.096    -493.828      87.486
  C       82.056    -493.931      86.176
  N       81.644    -495.174      85.769
  O       85.383    -491.616      81.689
  O       84.872    -490.798      84.060
  H       78.892    -495.635      82.389
  H       85.377    -490.645      81.575
  H       80.632    -498.632      88.419
  H       82.315    -493.137      85.484
  H       81.445    -496.737      84.427
  H       79.453    -494.716      84.383
  H       80.990    -493.068      83.474
  H       81.992    -495.356      81.666
  H       84.162    -494.125      81.849
  H       81.872    -495.325      91.267
  H       82.093    -493.880      90.272
  H       82.914    -493.235      80.942
  P       79.891    -492.121      81.275
  C       77.323    -492.501      81.202
  O       78.397    -491.679      81.653
  O       79.857    -492.219      79.680
  O       80.988    -491.237      81.760
  H       80.184    -491.382      79.292
  H       76.393    -492.083      81.528
  H       77.433    -493.485      81.607
  H       77.337    -492.551      80.133

 6  7  8  9  10  11  12  13  14  15  25  28  32  33  34  35 0
 6-311+G(2d,p)
 ****
 36  39  40 0
 6-311+G(2d,p)
 ****
 1  2  3  4  5  16  17  18  19  20  21  22  23  24 0
 3-21G
 ****
 26  27  29  30  31  37  38  41  42  43  44  45  46  47  48 0
 3-21G
 ****


