%nproc=1
%NoSave
%Mem=1900MB
#P OB98/GEN NMR

erre ene a

0 1
  C      -47.969     378.796    -198.456
  O      -49.041     379.203    -197.631
  P      -49.601     378.319    -196.423
  C      -49.867     379.982    -194.445
  O      -50.509     379.260    -195.489
  C      -50.857     380.748    -193.550
  O      -51.583     381.704    -194.345
  C      -51.896     379.784    -192.972
  O      -51.604     379.028    -191.811
  C      -53.187     380.591    -192.905
  O      -53.436     381.122    -191.600
  C      -52.949     381.729    -193.904
  N      -57.712     381.377    -195.613
  C      -57.268     381.694    -194.344
  N      -58.212     381.735    -193.377
  N      -56.009     381.924    -194.054
  C      -55.178     381.750    -195.111
  C      -55.500     381.455    -196.412
  C      -56.894     381.244    -196.727
  O      -57.326     380.879    -197.821
  N      -54.386     381.285    -197.196
  C      -53.377     381.439    -196.356
  N      -53.811     381.688    -195.070
  O      -48.634     377.381    -195.770
  O      -50.709     377.419    -197.174
  H      -53.972     381.931    -191.704
  H      -50.719     376.541    -196.745
  H      -58.685     381.131    -195.759
  H      -52.336     381.351    -196.621
  H      -53.106     382.704    -193.426
  H      -54.055     379.963    -193.153
  H      -59.158     381.420    -193.535
  H      -52.085     379.023    -193.742
  H      -57.897     381.793    -192.413
  H      -50.324     381.332    -192.790
  H      -49.159     380.670    -194.911
  H      -49.288     379.294    -193.829
  P      -52.473     377.827    -191.215
  C      -50.312     376.779    -190.335
  O      -51.645     377.144    -190.029
  O      -52.443     376.712    -192.365
  O      -53.886     378.178    -190.876
  H      -53.204     376.105    -192.256
  H      -49.951     376.071    -189.589
  H      -49.678     377.669    -190.313
  H      -50.253     376.313    -191.326
  H      -47.777     379.551    -199.190
  H      -48.224     377.879    -198.945
  H      -47.094     378.650    -197.858

 3  4  5  6  7  8  9  10  11  12  23  26  30  31 0
 6-311+G(2d,p)
 ****
 33  35  36  37  38 0
 6-311+G(2d,p)
 ****
 1  2  13  14  15  16  17  18  19  20  21  22  24  25 0
 3-21G
 ****
 27  28  29  32  34  39  40  41  42  43  44  45  46  47  48  49 0
 3-21G
 ****


