%nproc=1
%NoSave
%Mem=1900MB
#P OB98/GEN NMR

erre ene a

0 1
  C      183.839    -427.984    -891.310
  O      184.678    -429.029    -891.740
  H      183.886    -427.138    -892.000
  H      182.804    -428.347    -891.270
  H      184.127    -427.658    -890.300
  P      186.243    -428.701    -891.860
  C      187.678    -427.164    -893.390
  O      186.383    -427.618    -893.040
  C      187.770    -426.995    -894.900
  O      186.648    -426.215    -895.390
  C      189.022    -426.261    -895.370
  O      190.157    -427.110    -895.430
  C      188.586    -425.825    -896.760
  O      188.648    -426.948    -897.670
  C      187.121    -425.436    -896.510
  N      185.644    -420.896    -898.400
  C      185.728    -422.126    -898.960
  N      186.129    -423.283    -898.390
  C      186.478    -423.085    -897.110
  C      186.452    -421.885    -896.400
  C      186.004    -420.758    -897.100
  N      185.936    -419.506    -896.540
  N      186.917    -422.076    -895.120
  C      187.180    -423.366    -895.040
  N      186.947    -424.020    -896.220
  O      186.853    -430.030    -892.510
  O      186.923    -428.330    -890.590
  H      189.478    -427.425    -897.470
  H      187.813    -430.076    -892.340
  H      185.416    -422.192    -900.000
  H      187.555    -423.866    -894.150
  H      186.475    -425.662    -897.370
  H      189.207    -425.036    -897.180
  H      189.216    -425.364    -894.760
  H      187.711    -428.001    -895.370
  H      188.416    -427.900    -893.070
  H      185.782    -418.732    -897.180
  H      186.341    -419.362    -895.620
  H      187.881    -426.209    -892.890
  P      191.548    -426.442    -895.860
  C      192.292    -424.917    -897.840
  O      191.300    -425.806    -897.310
  O      192.484    -427.709    -896.160
  O      192.151    -425.520    -894.840
  H      193.426    -427.488    -896.020
  H      191.986    -424.578    -898.808
  H      193.226    -425.433    -897.922
  H      192.404    -424.077    -897.186

 6  7  8  9  10  11  12  13  14  15  25  28  32  33  34  35 0
 6-311+G(2d,p)
 ****
 36  39  40 0
 6-311+G(2d,p)
 ****
 1  2  3  4  5  16  17  18  19  20  21  22  23  24 0
 3-21G
 ****
 26  27  29  30  31  37  38  41  42  43  44  45  46  47 0
 3-21G
 ****
 48 0
 3-21G
 ****


