%nproc=1
%NoSave
%Mem=1900MB
#P OB98/GEN NMR

erre ene a

0 1
  C      146.259     550.752    -695.801
  O      145.892     549.992    -696.935
  H      147.082     551.428    -696.054
  H      145.401     551.351    -695.484
  H      146.557     550.093    -694.983
  P      147.030     549.068    -697.588
  C      145.265     547.251    -698.134
  O      146.299     548.090    -698.635
  C      145.097     546.035    -699.040
  O      144.696     546.494    -700.356
  C      146.366     545.178    -699.203
  O      146.104     543.827    -698.792
  C      146.638     545.180    -700.693
  O      147.061     543.911    -701.193
  C      145.302     545.603    -701.303
  N      143.930     545.521    -706.210
  C      143.336     545.026    -705.107
  N      143.696     545.172    -703.814
  C      144.791     545.953    -703.708
  C      145.494     546.543    -704.745
  C      145.036     546.286    -706.049
  N      145.683     546.747    -707.174
  N      146.570     547.258    -704.250
  C      146.540     547.064    -702.945
  N      145.487     546.258    -702.577
  O      147.448     548.093    -696.387
  O      148.206     549.804    -698.131
  H      147.830     543.641    -700.659
  H      148.418     548.064    -696.309
  H      142.449     544.416    -705.280
  H      147.271     547.427    -702.233
  H      144.625     544.750    -701.447
  H      147.424     545.915    -700.912
  H      147.221     545.576    -698.645
  H      144.273     545.423    -698.647
  H      144.325     547.808    -698.105
  H      145.347     546.422    -708.067
  H      146.562     547.229    -707.059
  H      145.518     546.945    -697.110
  P      146.163     543.530    -697.210
  C      145.108     541.152    -697.301
  O      146.257     541.941    -697.022
  O      144.670     543.870    -696.727
  O      147.186     544.336    -696.478
  H      144.672     544.140    -695.790
  H      145.333     540.120    -697.128
  H      144.822     541.288    -698.323
  H      144.304     541.454    -696.662

 6  7  8  9  10  11  12  13  14  15  25  28  32  33  34  35 0
 6-311+G(2d,p)
 ****
 36  39  40 0
 6-311+G(2d,p)
 ****
 1  2  3  4  5  16  17  18  19  20  21  22  23  24 0
 3-21G
 ****
 26  27  29  30  31  37  38  41  42  43  44  45  46  47  48 0
 3-21G
 ****


