%nproc=1
%NoSave
%Mem=1900MB
#P OB98/GEN NMR

erre ene a

0 1
  C       -5.347    -395.398      19.095
  O       -5.810    -396.417      19.960
  H       -4.446    -394.954      19.525
  H       -6.110    -394.623      18.997
  H       -5.104    -395.810      18.111
  P       -6.983    -397.366      19.421
  C       -5.289    -399.330      19.167
  O       -6.276    -398.516      18.545
  C       -5.660    -400.805      19.015
  O       -5.480    -401.188      17.622
  C       -4.803    -401.756      19.868
  O       -5.633    -402.833      20.325
  C       -3.787    -402.291      18.868
  O       -3.219    -403.537      19.246
  C       -4.645    -402.367      17.605
  N       -3.844    -402.428      16.385
  C       -4.032    -403.525      15.547
  O       -4.873    -404.399      15.716
  N       -3.187    -403.596      14.469
  C       -2.183    -402.718      14.167
  O       -1.447    -402.849      13.194
  C       -2.033    -401.582      15.095
  C       -2.850    -401.490      16.143
  O       -7.703    -396.454      18.319
  O       -7.931    -397.871      20.456
  H       -8.416    -395.929      18.725
  H       -3.925    -404.213      19.180
  H       -3.308    -404.382      13.857
  H       -1.244    -400.868      14.891
  H       -2.752    -400.686      16.858
  H       -5.308    -403.239      17.646
  H       -2.975    -401.574      18.746
  H       -4.317    -401.273      20.728
  H       -6.727    -400.930      19.245
  H       -5.240    -399.080      20.234
  H       -4.314    -399.129      18.709
  P       -5.266    -403.500      21.733
  C       -6.476    -401.842      23.360
  O       -5.255    -402.299      22.794
  O       -3.723    -403.854      21.516
  O       -6.141    -404.660      22.073
  H       -3.259    -403.195      20.976
  H       -6.276    -401.042      24.041
  H       -6.949    -402.646      23.883
  H       -7.122    -401.494      22.581

 6  7  8  9  10  11  12  13  14  15  16  27  31  32  33  34  35 0
 6-311+G(2d,p)
 ****
 36  37 0
 6-311+G(2d,p)
 ****
 1  2  3  4  5  17  18  19  20  21  22  23  24  25 0
 3-21G
 ****
 26  28  29  30  38  39  40  41  42  43  44  45 0
 3-21G
 ****


