%nproc=1
%NoSave
%Mem=1900MB
#P OB98/GEN NMR

erre ene a

0 1
  C     -198.749    -197.294     234.089
  O     -197.813    -196.625     234.917
  H     -199.583    -196.618     233.893
  H     -199.126    -198.184     234.599
  H     -198.287    -197.574     233.142
  P     -196.497    -197.457     235.311
  C     -197.022    -197.800     237.839
  O     -196.910    -198.387     236.551
  C     -197.203    -198.894     238.910
  O     -196.003    -199.737     238.917
  C     -197.370    -198.346     240.341
  O     -198.170    -199.288     241.076
  C     -195.936    -198.369     240.848
  O     -195.897    -198.209     242.253
  C     -195.489    -199.701     240.267
  N     -191.305    -200.391     243.144
  C     -192.619    -200.326     243.459
  N     -193.681    -200.159     242.640
  C     -193.271    -200.062     241.361
  C     -191.971    -200.118     240.878
  C     -190.951    -200.282     241.841
  N     -189.618    -200.342     241.511
  N     -191.960    -199.975     239.498
  C     -193.220    -199.837     239.157
  N     -194.051    -199.881     240.244
  O     -195.541    -196.347     235.964
  O     -195.822    -198.165     234.182
  H     -196.492    -198.859     242.684
  H     -194.924    -196.000     235.291
  H     -192.853    -200.427     244.528
  H     -193.593    -199.709     238.151
  H     -195.917    -200.555     240.806
  H     -195.361    -197.543     240.423
  H     -197.847    -197.361     240.370
  H     -198.038    -199.538     238.623
  H     -197.895    -197.134     237.844
  H     -196.116    -197.219     238.068
  H     -188.951    -200.444     242.261
  H     -189.340    -200.245     240.542
  P     -199.739    -199.016     241.266
  C     -199.399    -197.941     243.625
  O     -199.936    -197.813     242.312
  O     -200.205    -200.287     242.123
  O     -200.539    -198.907     239.999
  H     -201.137    -200.474     241.937
  H     -199.618    -197.058     244.188
  H     -198.339    -198.072     243.565
  H     -199.837    -198.789     244.108

 6  7  8  9  10  11  12  13  14  15  25  28  32  33  34  35 0
 6-311+G(2d,p)
 ****
 36  37  40 0
 6-311+G(2d,p)
 ****
 1  2  3  4  5  16  17  18  19  20  21  22  23  24 0
 3-21G
 ****
 26  27  29  30  31  38  39 41  42  43  44  45  46  47  48 0
 3-21G
 ****


