%nproc=1
%NoSave
%Mem=1900MB
#P OB98/GEN NMR

erre ene a

0 1
  C      872.671     981.524     242.699
  O      872.624     981.221     241.307
  P      871.717     979.969     240.861
  C      869.825     981.782     240.614
  O      870.197     980.475     241.025
  C      868.371     981.802     240.143
  O      868.251     981.171     238.846
  C      867.430     981.041     241.061
  O      867.152     981.772     242.246
  C      866.222     980.861     240.132
  O      865.436     982.063     240.098
  C      866.902     980.648     238.762
  N      866.905     979.248     238.348
  C      865.971     978.898     237.362
  O      865.179     979.709     236.885
  N      865.985     977.592     236.973
  C      866.793     976.611     237.470
  O      866.763     975.458     237.064
  C      867.723     977.023     238.529
  C      867.737     978.305     238.918
  O      871.934     978.969     242.079
  O      872.081     979.430     239.515
  H      872.032     979.427     242.934
  H      866.050     982.798     239.922
  H      865.328     977.326     236.247
  H      868.355     976.261     238.970
  H      868.406     978.628     239.707
  H      866.395     981.231     237.987
  H      865.570     980.049     240.447
  H      867.848     980.065     241.304
  H      868.064     982.843     240.056
  H      870.475     982.114     239.793
  H      869.983     982.470     241.457
  P      867.181     980.947     243.628
  C      869.725     981.047     244.233
  O      868.642     980.302     243.731
  O      866.237     979.705     243.261
  O      866.743     981.735     244.809
  H      866.414     979.330     242.376
  H      870.518     980.359     244.541
  H      869.413     981.643     245.102
  H      870.118     981.708     243.446
  H      873.304     982.372     242.858
  H      873.060     980.683     243.234
  H      871.684     981.745     243.049

 3  4  5  6  7  8  9  10  11  12  13  24  28  29  30  31  32 0
 6-311+G(2d,p)
 ****
 33  34 0
 6-311+G(2d,p)
 ****
 1  2  14  15  16  17  18  19  20  21  22  23  25  26  27 0
 3-21G
 ****
 35  36  37  38  39  40  41  42  43  44  45 0
 3-21G
 ****


