%nproc=1
%NoSave
%Mem=1900MB
#P OB98/GEN NMR

erre ene a

0 1
  C       61.911    -557.813     368.269
  O       60.952    -556.879     367.794
  P       59.495    -556.896     368.470
  C       57.308    -555.517     367.980
  O       58.717    -555.635     367.861
  C       56.841    -554.143     367.474
  O       57.524    -553.101     368.197
  C       57.142    -553.886     366.003
  O       56.232    -554.555     365.146
  C       57.055    -552.359     365.950
  O       55.682    -551.940     365.880
  C       57.662    -551.966     367.314
  N       59.052    -551.531     367.228
  C       59.264    -550.192     366.898
  O       58.339    -549.402     366.690
  N       60.571    -549.801     366.796
  C       61.668    -550.606     366.920
  O       62.816    -550.207     366.779
  C       61.384    -552.014     367.235
  C       60.113    -552.407     367.369
  O       59.859    -556.465     369.965
  O       58.801    -558.213     368.336
  H       60.666    -555.927     370.001
  H       55.689    -550.966     365.982
  H       60.746    -548.828     366.578
  H       62.225    -552.688     367.332
  H       59.884    -553.445     367.591
  H       57.072    -551.153     367.771
  H       57.577    -551.933     365.090
  H       58.168    -554.198     365.769
  H       55.768    -554.054     367.672
  H       57.025    -555.633     369.032
  H       56.831    -556.316     367.401
  P       56.854    -555.254     363.838
  C       56.420    -557.528     362.625
  O       56.199    -556.712     363.757
  O       58.359    -555.521     364.311
  O       56.730    -554.422     362.603
  H       58.412    -555.847     365.225
  H       56.218    -558.570     362.898
  H       57.451    -557.454     362.270
  H       55.738    -557.233     361.825
  H       62.828    -557.687     367.732
  H       61.544    -558.807     368.121
  H       62.083    -557.648     369.312

 3  4  5  6  7  8  9  10  11  12  13  24  28  29  30  31  32 0
 6-311+G(2d,p)
 ****
 33  34 0
 6-311+G(2d,p)
 ****
 1  2  14  15  16  17  18  19  20  21  22  23  25  26  27 0
 3-21G
 ****
 35  36  37  38  39  40  41  42  43  44  45 0
 3-21G
 ****


