%nproc=1
%NoSave
%Mem=1900MB
#P OB98/GEN NMR

erre ene a

0 1
  C      -75.315    -209.533      47.947
  O      -76.541    -209.485      48.695
  P      -76.575    -208.674      50.086
  C      -75.978    -210.683      51.656
  O      -76.929    -209.705      51.267
  C      -76.602    -211.661      52.660
  O      -76.896    -210.988      53.907
  C      -77.934    -212.255      52.212
  O      -77.760    -213.279      51.246
  C      -78.499    -212.760      53.532
  O      -77.953    -214.049      53.867
  C      -77.997    -211.687      54.522
  N      -79.055    -210.761      54.925
  C      -79.524    -210.889      56.229
  O      -79.140    -211.762      57.002
  N      -80.489    -209.986      56.604
  C      -81.063    -209.043      55.804
  O      -81.937    -208.281      56.196
  C      -80.580    -209.009      54.410
  C      -79.619    -209.857      54.046
  O      -77.945    -207.845      49.951
  O      -75.421    -207.763      50.333
  H      -76.984    -213.947      53.888
  H      -77.875    -207.024      50.475
  H      -80.824    -210.049      57.554
  H      -81.025    -208.290      53.741
  H      -79.249    -209.844      53.023
  H      -77.592    -212.163      55.423
  H      -79.589    -212.868      53.511
  H      -78.584    -211.460      51.821
  H      -75.874    -212.459      52.860
  H      -75.122    -210.191      52.128
  H      -75.632    -211.217      50.765
  P      -78.125    -212.905      49.726
  C      -80.656    -213.564      49.767
  O      -79.343    -213.865      49.337
  O      -76.858    -213.502      48.951
  O      -78.344    -211.443      49.518
  H      -76.508    -214.307      49.381
  H      -80.824    -212.489      49.814
  H      -80.820    -214.007      50.753
  H      -81.367    -214.003      49.058
  H      -75.463    -210.107      47.056
  H      -74.552    -209.989      48.542
  H      -75.018    -208.539      47.686

 3  4  5  6  7  8  9  10  11  12  13  23  28  29  30  31  32 0
 6-311+G(2d,p)
 ****
 33  34 0
 6-311+G(2d,p)
 ****
 1  2  14  15  16  17  18  19  20  21  22  24  25  26 0
 3-21G
 ****
 27  35  36  37  38  39  40  41  42  43  44  45 0
 3-21G
 ****


