%nproc=1
%NoSave
%Mem=1900MB
#P OB98/GEN NMR

erre ene a

0 1
  C     -434.000    -203.629      39.409
  O     -433.996    -202.697      38.348
  H     -434.832    -204.323      39.262
  H     -434.132    -203.116      40.364
  H     -433.064    -204.193      39.415
  P     -432.880    -201.543      38.402
  C     -431.386    -202.138      36.364
  O     -432.403    -201.296      36.890
  C     -431.970    -203.012      35.256
  O     -432.985    -203.882      35.800
  C     -432.662    -202.229      34.145
  O     -431.737    -201.663      33.234
  C     -433.519    -203.314      33.520
  O     -432.770    -204.093      32.567
  C     -433.919    -204.170      34.742
  N     -435.301    -203.933      35.145
  C     -436.212    -204.928      34.799
  O     -435.890    -205.952      34.193
  N     -437.512    -204.694      35.147
  C     -437.990    -203.570      35.753
  O     -439.182    -203.388      35.971
  C     -436.981    -202.556      36.107
  C     -435.703    -202.777      35.785
  O     -431.632    -202.279      39.084
  O     -433.281    -200.310      39.141
  H     -431.559    -202.010      40.018
  H     -431.884    -204.221      32.954
  H     -438.188    -205.396      34.894
  H     -437.329    -201.654      36.597
  H     -434.947    -202.036      36.019
  H     -433.815    -205.238      34.511
  H     -434.370    -202.897      32.984
  H     -433.318    -201.463      34.574
  H     -431.167    -203.637      34.844
  H     -431.000    -202.782      37.158
  H     -430.570    -201.517      35.979
  P     -432.138    -200.302      32.488
  C     -429.848    -199.048      32.166
  O     -430.861    -199.866      31.611
  O     -432.145    -199.266      33.703
  O     -433.417    -200.386      31.723
  H     -431.461    -199.455      34.365
  H     -429.091    -198.870      31.431
  H     -429.416    -199.540      33.012
  H     -430.272    -198.115      32.474

 6  7  8  9  10  11  12  13  14  15  16  27  31  32  33  34  35 0
 6-311+G(2d,p)
 ****
 36  37 0
 6-311+G(2d,p)
 ****
 1  2  3  4  5  17  18  19  20  21  22  23  24  25 0
 3-21G
 ****
 26  28  29  30  38  39  40  41  42  43  44  45 0
 3-21G
 ****


