%nproc=1
%NoSave
%Mem=1900MB
#P OB98/GEN NMR

erre ene a

0 1
  C     -162.335    -166.421    -161.421
  O     -162.231    -167.817    -161.258
  H     -163.153    -166.214    -162.119
  H     -161.414    -166.015    -161.844
  H     -162.558    -165.937    -160.468
  P     -161.078    -168.414    -160.313
  C     -160.246    -170.395    -161.718
  O     -161.055    -169.995    -160.620
  C     -160.702    -171.745    -162.275
  O     -160.555    -172.765    -161.250
  C     -162.166    -171.760    -162.738
  O     -162.261    -172.375    -164.024
  C     -162.858    -172.635    -161.703
  O     -164.053    -173.237    -162.192
  C     -161.726    -173.598    -161.337
  N     -161.993    -174.312    -160.096
  C     -162.226    -175.686    -160.212
  O     -162.191    -176.230    -161.316
  N     -162.545    -176.401    -159.086
  C     -162.669    -175.788    -157.951
  N     -163.016    -176.550    -156.879
  C     -162.461    -174.335    -157.787
  C     -162.124    -173.665    -158.889
  O     -161.204    -168.052    -158.872
  O     -159.708    -167.910    -160.970
  H     -163.844    -173.708    -163.028
  H     -159.001    -167.925    -160.284
  H     -162.582    -173.871    -156.820
  H     -161.953    -172.594    -158.868
  H     -161.563    -174.334    -162.135
  H     -163.123    -172.022    -160.831
  H     -162.612    -170.767    -162.785
  H     -160.024    -172.031    -163.090
  H     -163.156    -177.542    -157.038
  H     -159.204    -170.450    -161.383
  H     -163.165    -176.183    -155.952
  H     -160.332    -169.638    -162.505
  P     -163.538    -171.974    -164.910
  C     -163.893    -174.347    -165.898
  O     -163.610    -172.979    -166.158
  O     -163.109    -170.576    -165.564
  O     -164.795    -171.847    -164.117
  H     -163.633    -169.853    -165.170
  H     -163.908    -174.890    -166.820
  H     -164.847    -174.429    -165.420
  H     -163.137    -174.752    -165.258

 6  7  8  9  10  11  12  13  14  15  16  26  30  31  32  33  35 0
 6-311+G(2d,p)
 ****
 37  38 0
 6-311+G(2d,p)
 ****
 1  2  3  4  5  17  18  19  20  21  22  23  24  25 0
 3-21G
 ****
 27  28  29  34  36  39  40  41  42  43  44  45  46 0
 3-21G
 ****


