%nproc=1
%NoSave
%Mem=1900MB
#P OB98/GEN NMR

erre ene a

0 1
  C      547.328     285.298     178.031
  O      546.324     284.662     177.258
  P      546.753     283.387     176.387
  C      545.732     284.507     174.276
  O      545.780     283.357     175.104
  C      544.803     284.278     173.079
  O      545.389     283.254     172.219
  C      543.386     283.808     173.450
  O      542.502     284.387     172.489
  C      543.492     282.303     173.260
  O      542.243     281.647     173.159
  C      544.383     282.251     172.023
  N      543.574     277.460     170.397
  C      542.785     278.561     170.402
  N      543.067     279.801     170.848
  C      544.331     279.850     171.316
  C      545.237     278.820     171.407
  C      544.824     277.568     170.913
  N      545.627     276.455     170.918
  N      546.429     279.252     171.972
  C      546.221     280.527     172.223
  N      544.978     280.947     171.833
  O      546.240     282.152     177.259
  O      548.220     283.295     176.076
  H      542.359     280.712     172.922
  H      546.875     281.416     177.229
  H      541.780     278.411     170.000
  H      546.937     281.181     172.698
  H      543.831     282.495     171.105
  H      544.010     281.875     174.124
  H      543.078     284.115     174.455
  H      544.756     285.208     172.489
  H      546.737     284.722     173.895
  H      545.174     275.562     170.743
  H      546.479     276.497     171.483
  H      545.404     285.371     174.856
  P      541.845     285.823     172.793
  C      539.681     284.697     173.606
  O      540.265     285.563     172.650
  O      542.168     286.603     171.436
  O      542.325     286.497     174.035
  H      541.891     286.096     170.648
  H      538.590     284.686     173.463
  H      539.894     285.053     174.625
  H      540.060     283.683     173.478
  H      546.902     286.127     178.556
  H      548.107     285.647     177.386
  H      547.733     284.600     178.734

 3  4  5  6  7  8  9  10  11  12  22  25  29  30  31  32 0
 6-311+G(2d,p)
 ****
 33  36  37 0
 6-311+G(2d,p)
 ****
 1  2  13  14  15  16  17  18  19  20  21  23  24  26 0
 3-21G
 ****
 27  28  34  35  38  39  40  41  42  43  44  45  46  47  48 0
 3-21G
 ****


