%nproc=1
%NoSave
%Mem=1900MB
#P OB98/GEN NMR

erre ene a

0 1
  C      497.305     105.022     -51.364
  O      498.279     106.035     -51.205
  H      497.790     104.052     -51.215
  H      496.894     105.060     -52.375
  H      496.502     105.127     -50.632
  P      497.795     107.553     -51.045
  C      497.712     108.022     -53.583
  O      498.312     108.351     -52.336
  C      497.961     109.127     -54.618
  O      497.283     110.339     -54.190
  C      499.456     109.476     -54.720
  O      499.802     109.978     -56.013
  C      499.617     110.592     -53.706
  O      500.750     111.422     -53.952
  C      498.273     111.314     -53.828
  N      499.308     115.063     -50.530
  C      500.091     114.546     -51.545
  N      501.314     115.115     -51.702
  N      499.726     113.567     -52.316
  C      498.509     113.046     -52.003
  C      497.648     113.455     -51.013
  C      498.052     114.576     -50.178
  O      497.409     115.047     -49.256
  N      496.513     112.679     -50.994
  C      496.690     111.813     -51.959
  N      497.874     112.011     -52.623
  O      498.740     108.125     -49.886
  O      496.342     107.735     -50.720
  H      500.892     111.965     -53.160
  H      498.320     108.903     -49.466
  H      499.624     115.842     -49.986
  H      495.984     111.040     -52.230
  H      498.316     112.056     -54.642
  H      499.764     110.137     -52.715
  H      501.703     115.736     -51.003
  H      500.101     108.632     -54.484
  H      502.007     114.567     -52.217
  H      497.534     108.845     -55.581
  H      496.641     107.896     -53.402
  H      498.093     107.063     -53.949
  P      500.478     108.968     -57.063
  C      502.820     109.104     -55.811
  O      502.071     109.130     -57.014
  O      500.081     109.591     -58.486
  O      500.043     107.548     -56.931
  H      499.505     108.965     -58.969
  H      503.859     109.232     -56.035
  H      502.674     108.165     -55.320
  H      502.493     109.896     -55.170

 6  7  8  9  10  11  12  13  14  15  26  29  33  34 0
 6-311+G(2d,p)
 ****
 36  38  39  40  41 0
 6-311+G(2d,p)
 ****
 1  2  3  4  5  16  17  18  19  20  21  22  23  24  25 0
 3-21G
 ****
 27  28  30  31  32  35  37  42  43  44  45  46  47 0
 3-21G
 ****
 48  49 0
 3-21G
 ****


