%nproc=1
%NoSave
%Mem=1900MB
#P OB98/GEN NMR

erre ene a

0 1
  C     -287.205     878.413     -52.178
  O     -285.972     878.245     -51.509
  H     -287.013     878.526     -53.249
  H     -287.712     879.308     -51.814
  H     -287.841     877.536     -52.023
  P     -286.029     878.062     -49.916
  C     -284.027     876.535     -49.296
  O     -284.507     877.865     -49.432
  C     -283.459     876.028     -50.620
  O     -282.456     876.971     -51.090
  C     -282.794     874.646     -50.524
  O     -283.084     873.917     -51.724
  C     -281.312     874.980     -50.490
  O     -280.509     873.888     -50.925
  C     -281.278     876.198     -51.408
  N     -278.004     879.191     -53.793
  C     -279.168     878.592     -54.243
  N     -279.511     878.811     -55.538
  N     -279.923     877.828     -53.500
  C     -279.479     877.709     -52.224
  C     -278.343     878.251     -51.659
  C     -277.503     879.073     -52.503
  O     -276.458     879.614     -52.168
  N     -278.221     877.864     -50.344
  C     -279.278     877.108     -50.122
  N     -280.069     876.981     -51.227
  O     -286.670     876.605     -49.729
  O     -286.791     879.111     -49.175
  H     -280.600     873.169     -50.265
  H     -287.175     876.554     -48.899
  H     -277.460     879.755     -54.412
  H     -279.512     876.620     -49.181
  H     -281.324     875.924     -52.470
  H     -281.010     875.250     -49.474
  H     -278.993     879.414     -56.157
  H     -283.112     874.068     -49.655
  H     -280.362     878.388     -55.879
  H     -284.264     876.032     -51.367
  H     -284.852     875.886     -48.981
  H     -283.250     876.513     -48.523
  P     -284.388     872.985     -51.729
  C     -284.636     872.544     -54.276
  O     -284.316     872.004     -52.996
  O     -285.557     874.012     -52.115
  O     -284.665     872.320     -50.419
  H     -286.109     874.185     -51.337
  H     -284.545     871.779     -55.019
  H     -283.963     873.344     -54.504
  H     -285.640     872.914     -54.266

 6  7  8  9  10  11  12  13  14  15  26  29  33  34 0
 6-311+G(2d,p)
 ****
 36  38  39  40  41 0
 6-311+G(2d,p)
 ****
 1  2  3  4  5  16  17  18  19  20  21  22  23  24  25 0
 3-21G
 ****
 27  28  30  31  32  35  37  42  43  44  45  46  47 0
 3-21G
 ****
 48  49 0
 3-21G
 ****


