%nproc=1
%NoSave
%Mem=1900MB
#P OB98/GEN NMR

erre ene a

0 1
  C      235.547     616.632     310.929
  O      235.780     616.235     312.265
  H      236.497     616.944     310.489
  H      234.850     617.470     310.905
  H      235.148     615.796     310.348
  P      234.546     615.558     313.042
  C      233.190     616.263     315.181
  O      234.101     616.628     314.155
  C      232.353     617.476     315.600
  O      233.183     618.382     316.359
  C      231.752     618.263     314.422
  O      230.455     618.717     314.793
  C      232.705     619.439     314.270
  O      232.074     620.546     313.623
  C      233.127     619.676     315.724
  N      234.415     620.369     315.820
  C      234.368     621.765     315.928
  O      233.286     622.357     315.917
  N      235.551     622.466     316.001
  C      236.682     621.830     315.908
  N      237.812     622.584     315.960
  C      236.772     620.368     315.736
  C      235.617     619.707     315.714
  O      235.283     614.414     313.887
  O      233.454     615.069     312.153
  H      231.762     620.254     312.746
  H      236.124     614.701     314.281
  H      237.738     619.890     315.634
  H      235.597     618.629     315.597
  H      232.375     620.276     316.256
  H      233.570     619.148     313.660
  H      231.698     617.673     313.503
  H      231.562     617.132     316.286
  H      237.704     623.584     316.047
  H      233.726     615.873     316.049
  H      238.739     622.203     315.840
  H      232.544     615.469     314.791
  P      229.171     617.936     314.240
  C      227.442     618.169     312.336
  O      228.549     618.763     313.008
  O      228.175     617.494     315.275
  O      229.808     616.659     313.502
  H      229.230     615.882     313.678
  H      227.121     618.810     311.542
  H      226.638     618.028     313.028
  H      227.736     617.222     311.933

 6  7  8  9  10  11  12  13  14  15  16  26  30  31  32  33  35 0
 6-311+G(2d,p)
 ****
 37  38 0
 6-311+G(2d,p)
 ****
 1  2  3  4  5  17  18  19  20  21  22  23  24  25 0
 3-21G
 ****
 27  28  29  34  36  39  40  41  42  43  44  45  46 0
 3-21G
 ****


