%nproc=1
%NoSave
%Mem=1900MB
#P OB98/GEN NMR

erre ene a

0 1
  C      238.918    -894.310    -384.078
  O      237.869    -895.240    -383.857
  P      237.814    -895.980    -382.434
  C      235.865    -894.520    -381.513
  O      237.215    -894.930    -381.378
  C      235.236    -894.280    -380.144
  O      235.207    -895.540    -379.422
  C      235.988    -893.270    -379.260
  O      235.003    -892.610    -378.453
  C      236.838    -894.160    -378.379
  O      237.254    -893.510    -377.174
  C      235.911    -895.340    -378.175
  N      237.708    -898.150    -374.372
  C      237.090    -896.910    -374.351
  N      236.866    -896.380    -373.130
  N      236.714    -896.260    -375.420
  C      236.990    -896.930    -376.563
  C      237.626    -898.140    -376.721
  C      237.993    -898.860    -375.529
  O      238.458    -900.000    -375.498
  N      237.792    -898.450    -378.044
  C      237.189    -897.470    -378.678
  N      236.649    -896.550    -377.829
  O      239.357    -896.090    -382.027
  O      237.122    -897.310    -382.428
  H      237.589    -894.200    -376.567
  H      239.731    -896.950    -382.301
  H      237.954    -898.620    -373.509
  H      237.111    -897.380    -379.756
  H      235.171    -895.170    -377.385
  H      237.750    -894.460    -378.924
  H      237.105    -896.830    -372.258
  H      236.560    -892.540    -379.823
  H      236.394    -895.480    -373.081
  H      234.195    -893.960    -380.290
  H      235.299    -895.300    -382.030
  H      235.823    -893.610    -382.134
  P      235.292    -891.100    -378.002
  C      233.144    -889.840    -378.710
  O      234.494    -890.130    -378.998
  O      236.819    -890.890    -378.429
  O      235.109    -890.840    -376.546
  H      237.253    -890.270    -377.814
  H      232.866    -888.900    -379.204
  H      232.974    -889.730    -377.639
  H      232.507    -890.650    -379.093
  H      238.828    -893.898    -385.062
  H      239.861    -894.807    -383.984
  H      238.856    -893.523    -383.355

 3  4  5  6  7  8  9  10  11  12  23  26  30  31 0
 6-311+G(2d,p)
 ****
 33  35  36  37  38 0
 6-311+G(2d,p)
 ****
 1  2  13  14  15  16  17  18  19  20  21  22  24  25 0
 3-21G
 ****
 27  28  29  32  34  39  40  41  42  43  44  45  46  47  48  49 0
 3-21G
 ****


