%nproc=1
%NoSave
%Mem=1900MB
#P OB98/GEN NMR

erre ene a

0 1
  C     -251.544     781.719     431.509
  O     -250.199     782.160     431.360
  P     -249.830     783.095     430.112
  C     -250.103     785.520     431.145
  O     -249.270     784.502     430.635
  C     -249.292     786.820     431.262
  O     -250.171     787.930     431.583
  C     -248.224     786.768     432.350
  O     -247.005     786.215     431.870
  C     -248.105     788.233     432.746
  O     -247.332     788.950     431.776
  C     -249.584     788.673     432.689
  N     -250.424     788.455     433.897
  C     -250.068     789.065     435.105
  O     -249.079     789.775     435.250
  N     -250.903     788.828     436.159
  C     -252.122     788.206     436.111
  O     -252.853     788.078     437.080
  C     -252.520     787.719     434.782
  C     -251.661     787.857     433.762
  O     -251.253     783.462     429.484
  O     -248.921     782.465     429.110
  H     -247.112     789.813     432.158
  H     -251.333     783.088     428.586
  H     -250.618     789.192     437.063
  H     -253.497     787.260     434.688
  H     -251.950     787.490     432.776
  H     -249.661     789.743     432.440
  H     -247.592     788.338     433.692
  H     -248.584     786.213     433.219
  H     -248.828     787.026     430.289
  H     -250.509     785.241     432.119
  H     -250.960     785.668     430.483
  P     -246.058     785.396     432.864
  C     -247.149     783.074     432.762
  O     -246.072     783.882     432.334
  O     -246.331     785.576     434.328
  O     -244.585     785.895     432.459
  H     -244.284     786.622     433.055
  H     -247.139     782.136     432.211
  H     -248.104     783.585     432.571
  H     -247.055     782.867     433.831
  H     -251.624     781.109     432.384
  H     -251.830     781.150     430.649
  H     -252.189     782.567     431.605

 3  4  5  6  7  8  9  10  11  12  13  23  28  29  30  31  32 0
 6-311+G(2d,p)
 ****
 33  34 0
 6-311+G(2d,p)
 ****
 1  2  14  15  16  17  18  19  20  21  22  24  25  26  27 0
 3-21G
 ****
 35  36  37  38  39  40  41  42  43  44  45 0
 3-21G
 ****


