%nproc=1
%NoSave
%Mem=1900MB
#P OB98/GEN NMR

erre ene a

0 1
  C      144.268     307.277    -538.050
  O      143.871     307.331    -539.421
  P      144.079     305.983    -540.270
  C      142.156     306.372    -541.974
  O      143.557     306.254    -541.765
  C      141.840     307.571    -542.867
  O      142.211     308.823    -542.258
  C      142.560     307.535    -544.209
  O      141.887     306.662    -545.095
  C      142.494     308.996    -544.638
  O      141.235     309.293    -545.279
  C      142.607     309.745    -543.300
  N      145.729     313.696    -543.910
  C      144.496     313.442    -544.491
  N      144.017     314.390    -545.324
  N      143.798     312.361    -544.258
  C      144.401     311.506    -543.401
  C      145.600     311.657    -542.746
  C      146.369     312.854    -543.013
  O      147.449     313.134    -542.515
  N      145.851     310.603    -541.905
  C      144.863     309.757    -542.148
  N      143.920     310.286    -542.999
  O      142.986     304.986    -539.654
  O      145.456     305.419    -540.167
  H      141.137     310.258    -545.359
  H      143.428     304.281    -539.145
  H      146.227     314.541    -544.135
  H      144.772     308.774    -541.718
  H      141.913     310.599    -543.262
  H      143.268     309.238    -545.362
  H      144.499     315.245    -545.547
  H      143.603     307.229    -544.063
  H      143.113     314.224    -545.753
  H      140.755     307.584    -543.027
  H      141.641     306.479    -541.014
  H      141.791     305.442    -542.425
  P      142.474     305.178    -545.279
  C      140.043     304.300    -545.047
  O      141.267     304.238    -545.749
  O      142.767     304.713    -543.774
  O      143.709     305.104    -546.111
  H      143.638     304.277    -543.728
  H      139.231     304.054    -545.733
  H      139.870     305.300    -544.638
  H      140.048     303.568    -544.238
  H      144.085     308.225    -537.588
  H      145.311     307.047    -537.990
  H      143.706     306.519    -537.545

 3  4  5  6  7  8  9  10  11  12  23  26  30  31 0
 6-311+G(2d,p)
 ****
 33  35  36  37  38 0
 6-311+G(2d,p)
 ****
 1  2  13  14  15  16  17  18  19  20  21  22  24  25 0
 3-21G
 ****
 27  28  29  32  34  39  40  41  42  43  44  45  46  47  48  49 0
 3-21G
 ****


