%nproc=1
%NoSave
%Mem=1900MB
#P OB98/GEN NMR

erre ene a

0 1
  C      -89.291    -590.436     -94.077
  O      -90.541    -589.979     -93.591
  P      -90.630    -589.130     -92.231
  C      -92.848    -587.953     -92.809
  O      -92.202    -588.892     -91.973
  C      -94.318    -587.828     -92.423
  O      -95.006    -589.108     -92.496
  C      -94.555    -587.368     -90.987
  O      -94.150    -586.060     -90.654
  C      -96.017    -587.711     -90.798
  O      -96.874    -586.705     -91.356
  C      -96.148    -589.042     -91.603
  N      -96.204    -590.215     -90.719
  C      -97.210    -591.133     -91.030
  O      -98.006    -591.005     -91.968
  N      -97.300    -592.228     -90.194
  C      -96.515    -592.451     -89.106
  O      -96.676    -593.425     -88.376
  C      -95.487    -591.431     -88.820
  C      -95.377    -590.371     -89.644
  O      -89.809    -587.898     -92.202
  O      -90.257    -590.210     -91.102
  H      -96.493    -586.445     -92.209
  H      -90.851    -590.985     -91.066
  H      -98.025    -592.893     -90.403
  H      -94.855    -591.596     -87.960
  H      -94.638    -589.622     -89.458
  H      -97.043    -589.025     -92.242
  H      -96.287    -587.810     -89.736
  H      -93.978    -588.043     -90.333
  H      -94.818    -587.163     -93.147
  H      -92.787    -588.316     -93.855
  H      -92.345    -586.990     -92.757
  P      -94.241    -585.467     -89.172
  C      -91.774    -584.699     -89.056
  O      -93.133    -584.319     -89.011
  O      -94.369    -586.460     -88.041
  O      -95.601    -584.596     -89.245
  H      -96.039    -584.580     -88.371
  H      -91.145    -583.803     -88.894
  H      -91.516    -585.101     -90.044
  H      -91.538    -585.419     -88.281
  H      -89.439    -590.978     -94.987
  H      -88.838    -591.077     -93.350
  H      -88.652    -589.598     -94.261

 3  4  5  6  7  8  9  10  11  12  13  23  28  29  30  31  32 0
 6-311+G(2d,p)
 ****
 33  34 0
 6-311+G(2d,p)
 ****
 1  2  14  15  16  17  18  19  20  21  22  24  25  26  27 0
 3-21G
 ****
 35  36  37  38  39  40  41  42  43  44  45 0
 3-21G
 ****


