%nproc=1
%NoSave
%Mem=1900MB
#P OB98/GEN NMR

erre ene a

0 1
  C      709.461    -538.549     874.513
  O      709.469    -539.823     873.912
  H      708.507    -538.057     874.304
  H      710.266    -537.931     874.096
  H      709.585    -538.627     875.600
  P      710.682    -540.805     874.291
  C      712.313    -540.035     872.423
  O      712.030    -540.070     873.810
  C      713.795    -539.706     872.199
  O      714.026    -538.319     872.570
  C      714.756    -540.568     873.044
  O      715.926    -540.819     872.261
  C      715.109    -539.651     874.204
  O      716.341    -539.972     874.832
  C      715.130    -538.290     873.499
  N      715.006    -537.166     874.426
  C      716.106    -536.351     874.586
  O      717.166    -536.443     873.935
  N      715.994    -535.369     875.543
  C      714.912    -535.155     876.353
  O      714.873    -534.286     877.204
  C      713.772    -536.070     876.150
  C      713.875    -537.026     875.210
  O      710.511    -542.000     873.235
  O      710.706    -541.288     875.704
  H      709.931    -542.697     873.598
  H      716.255    -540.877     875.196
  H      716.786    -534.765     875.658
  H      712.909    -535.949     876.780
  H      713.056    -537.726     875.050
  H      716.054    -538.176     872.911
  H      714.318    -539.683     874.957
  H      714.316    -541.512     873.382
  H      714.021    -539.802     871.136
  H      711.697    -539.247     871.941
  H      712.062    -540.999     871.967
  P      715.845    -542.018     871.197
  C      717.469    -543.393     872.737
  O      716.247    -543.343     871.994
  O      717.136    -541.700     870.274
  O      714.543    -542.048     870.451
  H      717.876    -541.339     870.792
  H      717.566    -544.353     873.200
  H      717.460    -542.633     873.490
  H      718.295    -543.230     872.077

 6  7  8  9  10  11  12  13  14  15  16  27  31  32  33  34  35 0
 6-311+G(2d,p)
 ****
 36  37 0
 6-311+G(2d,p)
 ****
 1  2  3  4  5  17  18  19  20  21  22  23  24  25 0
 3-21G
 ****
 26  28  29  30  38  39  40  41  42  43  44  45 0
 3-21G
 ****


