%nproc=1
%NoSave
%Mem=1900MB
#P OB98/GEN NMR

erre ene a

0 1
  C      181.928     245.958    -412.461
  O      182.822     245.057    -411.826
  H      180.919     245.819    -412.061
  H      182.255     246.980    -412.251
  H      181.929     245.801    -413.542
  P      182.628     243.500    -412.149
  C      181.750     243.031    -409.739
  O      182.733     242.744    -410.731
  C      182.412     243.614    -408.490
  O      183.276     242.600    -407.901
  C      183.273     244.850    -408.772
  O      183.110     245.779    -407.694
  C      184.690     244.307    -408.775
  O      185.650     245.302    -408.453
  C      184.581     243.187    -407.735
  N      188.903     241.254    -405.808
  C      188.045     242.191    -405.346
  N      186.912     242.641    -405.917
  C      186.669     241.987    -407.077
  C      187.452     241.016    -407.673
  C      188.628     240.651    -406.996
  N      189.527     239.730    -407.477
  N      186.884     240.613    -408.870
  C      185.790     241.331    -408.988
  N      185.615     242.177    -407.926
  O      184.007     243.127    -412.877
  O      181.441     243.150    -412.981
  H      185.528     245.562    -407.512
  H      183.970     243.415    -413.812
  H      188.311     242.641    -404.388
  H      185.090     241.280    -409.817
  H      184.675     243.551    -406.711
  H      184.931     243.908    -409.761
  H      183.017     245.337    -409.716
  H      181.627     243.829    -407.753
  H      181.228     242.105    -409.486
  H      190.379     239.572    -406.955
  H      189.368     239.320    -408.381
  H      181.030     243.747    -410.149
  P      181.973     246.911    -407.880
  C      183.266     248.869    -408.986
  O      182.674     248.352    -407.800
  O      181.131     246.818    -406.522
  O      181.105     246.684    -409.075
  H      180.179     246.762    -406.718
  H      183.691     249.830    -408.783
  H      182.519     248.963    -409.746
  H      184.033     248.203    -409.321

 6  7  8  9  10  11  12  13  14  15  25  28  32  33  34  35 0
 6-311+G(2d,p)
 ****
 36  39  40 0
 6-311+G(2d,p)
 ****
 1  2  3  4  5  16  17  18  19  20  21  22  23  24 0
 3-21G
 ****
 26  27  29  30  31  37  38  41  42  43  44  45  46  47 0
 3-21G
 ****
 48 0
 3-21G
 ****


