%nproc=1
%NoSave
%Mem=1900MB
#P OB98/GEN NMR

erre ene a

0 1
  C     -123.016      38.952    -105.648
  O     -124.204      39.750    -105.633
  P     -125.100      39.748    -106.965
  C     -127.435      38.736    -106.474
  O     -126.641      39.914    -106.541
  C     -128.631      38.919    -105.528
  O     -128.189      39.388    -104.221
  C     -129.668      39.928    -106.035
  O     -130.962      39.485    -105.599
  C     -129.308      41.197    -105.283
  O     -130.395      42.120    -105.261
  C     -128.912      40.606    -103.929
  N     -128.480      43.013     -99.445
  C     -129.410      42.166     -99.930
  N     -129.465      41.583    -101.151
  C     -128.391      41.922    -101.882
  C     -127.362      42.785    -101.525
  C     -127.432      43.349    -100.236
  N     -126.492      44.231     -99.751
  N     -126.460      42.920    -102.566
  C     -126.942      42.162    -103.533
  N     -128.088      41.516    -103.154
  O     -125.006      38.230    -107.464
  O     -124.621      40.702    -108.018
  H     -130.160      42.854    -104.648
  H     -124.444      38.178    -108.262
  H     -130.228      41.929     -99.252
  H     -126.509      42.049    -104.516
  H     -129.781      40.351    -103.312
  H     -128.455      41.686    -105.763
  H     -129.672      40.074    -107.121
  H     -129.108      37.941    -105.384
  H     -126.829      37.892    -106.128
  H     -126.633      44.614     -98.831
  H     -125.733      44.525    -100.353
  H     -127.764      38.472    -107.487
  P     -131.755      38.508    -106.592
  C     -130.887      36.175    -105.835
  O     -131.943      37.124    -105.804
  O     -130.675      38.159    -107.725
  O     -132.999      39.102    -107.169
  H     -131.126      37.923    -108.558
  H     -130.787      35.727    -104.841
  H     -129.930      36.638    -106.109
  H     -131.131      35.394    -106.554
  H     -122.515      39.041    -104.707
  H     -122.369      39.290    -106.430
  H     -123.276      37.928    -105.818

 3  4  5  6  7  8  9  10  11  12  22  25  29  30  31  32 0
 6-311+G(2d,p)
 ****
 33  36  37 0
 6-311+G(2d,p)
 ****
 1  2  13  14  15  16  17  18  19  20  21  23  24  26 0
 3-21G
 ****
 27  28  34  35  38  39  40  41  42  43  44  45  46  47  48 0
 3-21G
 ****


