%nproc=1
%NoSave
%Mem=1900MB
#P OB98/GEN NMR

erre ene a

0 1
  C      -19.361       1.044     -41.585
  O      -20.340       0.326     -42.306
  H      -18.712       1.560     -42.297
  H      -18.751       0.360     -40.990
  H      -19.826       1.788     -40.934
  P      -21.507      -0.417     -41.497
  C      -20.636      -2.826     -41.772
  O      -20.865      -1.748     -40.874
  C      -21.952      -3.537     -42.075
  O      -21.788      -4.441     -43.190
  C      -22.474      -4.389     -40.923
  O      -23.040      -3.578     -39.914
  C      -23.454      -5.285     -41.663
  O      -24.691      -4.600     -41.915
  C      -22.699      -5.545     -42.988
  N      -21.988      -6.824     -42.994
  C      -22.740      -7.942     -43.338
  O      -23.935      -7.891     -43.620
  N      -22.077      -9.141     -43.301
  C      -20.794      -9.329     -42.875
  O      -20.313     -10.435     -42.650
  C      -20.027      -8.106     -42.598
  C      -20.653      -6.929     -42.653
  O      -22.783      -0.620     -42.241
  O      -21.720       0.512     -40.209
  H      -22.510       1.070     -40.343
  H      -25.164      -4.560     -41.061
  H      -22.626      -9.964     -43.503
  H      -18.987      -8.209     -42.319
  H      -20.116      -6.016     -42.423
  H      -23.397      -5.540     -43.835
  H      -23.698      -6.188     -41.100
  H      -21.665      -5.008     -40.518
  H      -22.691      -2.778     -42.363
  H      -19.942      -3.530     -41.300
  H      -20.182      -2.439     -42.689
  P      -23.241      -4.129     -38.426
  C      -25.692      -4.765     -38.824
  O      -24.402      -5.234     -38.458
  O      -23.417      -3.078     -37.380
  O      -21.925      -4.998     -38.146
  H      -21.512      -4.693     -37.315
  H      -26.385      -5.581     -38.813
  H      -25.653      -4.344     -39.807
  H      -26.010      -4.017     -38.128

 6  7  8  9  10  11  12  13  14  15  16  27  31  32  33  34  35 0
 6-311+G(2d,p)
 ****
 36  37 0
 6-311+G(2d,p)
 ****
 1  2  3  4  5  17  18  19  20  21  22  23  24  25 0
 3-21G
 ****
 26  28  29  30  38  39  40  41  42  43  44  45 0
 3-21G
 ****


