%nproc=1
%NoSave
%Mem=1900MB
#P OB98/GEN NMR

erre ene a

0 1
  C      477.407      70.719      88.403
  O      477.252      69.772      89.463
  P      475.824      69.677      90.191
  C      473.441      70.424      89.455
  O      474.674      69.821      89.087
  C      472.261      69.517      89.086
  O      472.269      69.157      87.690
  C      472.248      68.190      89.846
  O      471.687      68.342      91.137
  C      471.334      67.358      88.961
  O      469.956      67.691      89.238
  C      471.722      67.826      87.556
  N      473.295      62.994      86.863
  C      472.292      63.526      87.602
  N      471.946      64.812      87.749
  C      472.747      65.608      87.020
  C      473.817      65.219      86.214
  C      474.080      63.838      86.151
  N      475.099      63.310      85.384
  N      474.415      66.307      85.625
  C      473.714      67.343      86.059
  N      472.704      66.974      86.904
  O      475.741      71.059      90.993
  O      475.695      68.501      91.105
  H      469.824      67.584      90.200
  H      475.259      70.923      91.832
  H      471.682      62.801      88.153
  H      473.897      68.378      85.775
  H      470.855      67.892      86.881
  H      471.443      66.282      89.136
  H      473.256      67.746      89.875
  H      471.331      70.069      89.294
  H      473.335      71.391      88.964
  H      475.205      62.307      85.375
  H      475.669      63.933      84.835
  H      473.455      70.632      90.537
  P      472.107      67.259      92.258
  C      474.187      67.105      93.817
  O      473.318      67.935      93.076
  O      472.817      66.113      91.392
  O      470.977      66.743      93.073
  H      472.694      65.244      91.834
  H      475.097      67.660      94.043
  H      474.456      66.206      93.248
  H      473.706      66.813      94.756
  H      478.405      70.665      88.020
  H      477.220      71.705      88.775
  H      476.712      70.496      87.621

 3  4  5  6  7  8  9  10  11  12  22  25  29  30  31  32 0
 6-311+G(2d,p)
 ****
 33  36  37 0
 6-311+G(2d,p)
 ****
 1  2  13  14  15  16  17  18  19  20  21  23  24  26 0
 3-21G
 ****
 27  28  34  35  38  39  40  41  42  43  44  45  46  47  48 0
 3-21G
 ****


