%nproc=1
%NoSave
%Mem=1900MB
#P OB98/GEN NMR

erre ene a

0 1
  C       90.872    -111.634     108.657
  O       90.734    -112.744     107.793
  P       91.771    -113.962     107.851
  C       93.484    -112.560     106.561
  O       92.783    -113.797     106.614
  C       94.544    -112.571     105.460
  O       95.282    -111.316     105.502
  C       95.571    -113.706     105.568
  O       95.921    -114.075     104.228
  C       96.756    -113.030     106.237
  O       97.981    -113.723     106.031
  C       96.684    -111.653     105.586
  N      101.134    -109.209     106.198
  C      100.769    -110.216     105.375
  N       99.570    -110.831     105.291
  C       98.701    -110.302     106.168
  C       98.937    -109.294     107.090
  C      100.221    -108.720     107.073
  N      100.602    -107.670     107.882
  N       97.810    -109.069     107.858
  C       96.913    -109.924     107.407
  N       97.388    -110.643     106.344
  O       91.156    -115.317     107.978
  O       92.691    -113.627     109.118
  H       98.177    -113.723     105.074
  H       92.460    -114.217     109.862
  H      101.536    -110.572     104.696
  H       95.920    -110.062     107.808
  H       97.093    -111.657     104.567
  H       96.580    -112.968     107.320
  H       95.214    -114.579     106.127
  H       94.032    -112.608     104.491
  H       93.970    -112.406     107.529
  H      101.499    -107.250     107.694
  H       99.881    -107.121     108.344
  H       92.775    -111.740     106.395
  P       95.822    -115.607     103.766
  C       98.237    -116.027     104.506
  O       97.313    -116.082     103.432
  O       94.806    -115.891     102.708
  O       95.490    -116.386     105.129
  H       95.135    -117.274     104.920
  H       98.596    -115.000     104.624
  H       99.084    -116.679     104.281
  H       97.773    -116.357     105.441
  H       90.087    -110.933     108.465
  H       91.819    -111.165     108.487
  H       90.815    -111.964     109.673

 3  4  5  6  7  8  9  10  11  12  22  25  29  30  31  32 0
 6-311+G(2d,p)
 ****
 33  36  37 0
 6-311+G(2d,p)
 ****
 1  2  13  14  15  16  17  18  19  20  21  23  24  26 0
 3-21G
 ****
 27  28  34  35  38  39  40  41  42  43  44  45  46  47  48 0
 3-21G
 ****


