%nproc=1
%NoSave
%Mem=1900MB
#P OB98/GEN NMR

erre ene a

0 1
  C      239.550    -893.385     -51.402
  O      240.543    -892.684     -50.688
  H      239.966    -893.686     -52.369
  H      238.682    -892.742     -51.576
  H      239.231    -894.284     -50.864
  P      240.315    -892.410     -49.124
  C      242.410    -893.377     -47.961
  O      241.059    -893.585     -48.327
  C      242.954    -894.562     -47.156
  O      242.305    -894.582     -45.857
  C      242.636    -895.900     -47.839
  O      243.597    -896.900     -47.519
  C      241.296    -896.273     -47.232
  O      241.024    -897.675     -47.296
  C      241.464    -895.748     -45.807
  N      238.979    -894.847     -41.435
  C      240.242    -895.362     -41.621
  N      240.942    -895.674     -40.507
  N      240.765    -895.570     -42.806
  C      239.931    -895.278     -43.829
  C      238.643    -894.787     -43.771
  C      238.086    -894.520     -42.455
  O      236.970    -894.097     -42.226
  N      238.094    -894.632     -45.019
  C      239.053    -895.027     -45.842
  N      240.192    -895.407     -45.168
  O      238.765    -892.755     -48.900
  O      240.646    -891.021     -48.653
  H      241.094    -897.954     -48.230
  H      238.428    -892.303     -48.096
  H      238.641    -894.674     -40.493
  H      238.973    -895.040     -46.925
  H      241.956    -896.489     -45.158
  H      240.506    -895.770     -47.781
  H      240.503    -895.707     -39.599
  H      242.547    -895.805     -48.919
  H      241.728    -896.330     -40.634
  H      244.029    -894.425     -46.970
  H      242.440    -892.458     -47.368
  H      243.023    -893.195     -48.847
  P      244.891    -897.058     -48.461
  C      246.494    -896.036     -46.619
  O      246.048    -896.087     -47.967
  O      244.421    -896.397     -49.857
  O      245.363    -898.460     -48.646
  H      244.394    -897.071     -50.559
  H      247.276    -895.311     -46.529
  H      246.863    -896.997     -46.329
  H      245.678    -895.761     -45.984

 6  7  8  9  10  11  12  13  14  15  26  29  33  34 0
 6-311+G(2d,p)
 ****
 36  38  39  40  41 0
 6-311+G(2d,p)
 ****
 1  2  3  4  5  16  17  18  19  20  21  22  23  24  25 0
 3-21G
 ****
 27  28  30  31  32  35  37  42  43  44  45  46  47 0
 3-21G
 ****
 48  49 0
 3-21G
 ****


