%nproc=1
%NoSave
%Mem=1900MB
#P OB98/GEN NMR

erre ene a

0 1
  C      295.515     173.726     555.158
  O      296.597     172.784     555.116
  P      298.140     173.210     554.965
  C      298.639     171.743     552.891
  O      298.928     171.998     554.259
  C      299.025     170.311     552.510
  O      298.013     169.384     552.965
  C      299.140     170.039     551.017
  O      300.304     170.611     550.448
  C      299.108     168.512     550.988
  O      300.410     167.957     551.219
  C      298.178     168.181     552.171
  N      296.884     167.655     551.755
  C      296.908     166.623     550.805
  O      297.973     166.254     550.309
  N      295.714     166.049     550.437
  C      294.598     166.533     550.888
  N      293.452     165.913     550.502
  C      294.526     167.704     551.780
  C      295.695     168.210     552.169
  O      298.765     173.672     556.241
  O      298.155     174.372     553.864
  H      298.925     174.950     554.006
  H      301.021     168.413     550.605
  H      293.573     168.103     552.101
  H      295.737     169.067     552.841
  H      298.662     167.456     552.839
  H      298.755     168.124     550.023
  H      298.241     170.431     550.512
  H      299.975     170.070     553.013
  H      293.538     165.103     549.898
  H      299.226     172.442     552.279
  H      292.533     166.193     550.814
  H      297.576     171.925     552.700
  P      300.100     171.526     549.148
  C      302.200     170.424     548.075
  O      301.511     171.625     548.394
  O      299.886     172.996     549.748
  O      298.953     171.126     548.273
  H      299.203     173.468     549.231
  H      302.822     170.601     547.194
  H      301.501     169.604     547.862
  H      302.840     170.149     548.915
  H      294.589     173.201     555.263
  H      295.502     174.295     554.252
  H      295.648     174.385     555.991

 3  4  5  6  7  8  9  10  11  12  13  24  27  28  29  30  32 0
 6-311+G(2d,p)
 ****
 34  35 0
 6-311+G(2d,p)
 ****
 1  2  14  15  16  17  18  19  20  21  22  23  25  26 0
 3-21G
 ****
 31  33  36  37  38  39  40  41  42  43  44  45  46 0
 3-21G
 ****


