%nproc=1
%NoSave
%Mem=1900MB
#P OB98/GEN NMR

erre ene a

0 1
  C      146.458     435.714     361.123
  O      146.384     437.093     361.484
  P      147.520     437.652     362.478
  C      148.016     439.941     361.339
  O      148.476     438.632     361.627
  C      147.637     440.073     359.865
  O      146.590     439.164     359.509
  C      147.121     441.449     359.480
  O      148.173     442.380     359.285
  C      146.436     441.145     358.152
  O      147.404     441.119     357.090
  C      145.866     439.730     358.389
  N      141.232     438.442     356.778
  C      142.461     438.284     356.161
  N      142.456     437.674     354.955
  N      143.596     438.692     356.683
  C      143.449     439.262     357.902
  C      142.283     439.470     358.617
  C      141.036     439.042     358.015
  O      139.918     439.189     358.503
  N      142.543     440.065     359.822
  C      143.857     440.189     359.854
  N      144.455     439.721     358.708
  O      148.442     436.361     362.719
  O      146.988     438.205     363.756
  H      147.847     442.000     357.082
  H      148.886     436.421     363.589
  H      140.397     438.120     356.327
  H      144.424     440.593     360.690
  H      146.027     439.076     357.534
  H      145.673     441.895     357.876
  H      141.635     437.268     354.533
  H      146.385     441.814     360.200
  H      143.358     437.515     354.511
  H      148.532     439.829     359.258
  H      148.802     440.670     361.586
  H      147.160     440.168     361.989
  P      148.769     443.099     360.599
  C      151.219     442.251     360.412
  O      149.976     442.158     361.088
  O      147.623     442.854     361.697
  O      149.092     444.540     360.431
  H      147.638     443.572     362.353
  H      151.495     443.286     360.214
  H      151.164     441.697     359.463
  H      151.996     441.803     361.034
  H      145.650     435.474     360.464
  H      146.390     435.111     362.004
  H      147.389     435.524     360.631

 3  4  5  6  7  8  9  10  11  12  23  26  30  31  33  0
 6-311+G(2d,p)
 ****
 35  36  37  38 0
 6-311+G(2d,p)
 ****
 1  2  13  14  15  16  17  18  19  20  21  22  24  25  27  28  29 0
 3-21G
 ****
 32  34  39  40  41  42  43  44  45  46  47  48  49 0
 3-21G
 ****


