%nproc=1
%NoSave
%Mem=1900MB
#P OB98/GEN NMR

erre ene a

0 1
  C     -896.300     216.398     453.930
  O     -897.390     215.762     454.570
  H     -895.970     215.772     453.098
  H     -895.460     216.507     454.631
  H     -896.590     217.376     453.533
  P     -898.250     216.585     455.634
  C     -897.710     214.971     457.571
  O     -897.590     216.296     457.077
  C     -896.510     214.628     458.466
  O     -896.580     215.468     459.676
  C     -896.460     213.151     458.918
  O     -895.090     212.737     459.009
  C     -897.090     213.234     460.289
  O     -896.770     212.132     461.092
  C     -896.510     214.569     460.788
  N     -897.240     215.059     461.960
  C     -896.830     214.577     463.207
  O     -895.920     213.757     463.360
  N     -897.560     215.025     464.268
  C     -898.710     215.784     464.211
  O     -899.350     216.058     465.204
  C     -899.110     216.206     462.863
  C     -898.370     215.845     461.826
  O     -899.730     216.386     455.581
  O     -897.840     218.122     455.382
  H     -897.090     212.264     462.008
  H     -898.520     218.723     455.740
  H     -897.280     214.683     465.192
  H     -900.000     216.811     462.773
  H     -898.630     216.139     460.810
  H     -895.440     214.453     461.057
  H     -898.180     213.287     460.219
  H     -897.000     212.490     458.240
  H     -895.590     214.909     457.944
  H     -897.750     214.276     456.718
  H     -898.650     214.884     458.151
  P     -894.450     211.683     457.988
  C     -894.920     209.312     458.873
  O     -895.330     210.333     457.944
  O     -892.980     211.447     458.180
  O     -894.710     212.336     456.534
  H     -893.900     212.275     456.008
  H     -895.559     208.460     458.771
  H     -894.987     209.691     459.872
  H     -893.909     209.027     458.667

 6  7  8  9  10  11  12  13  14  15  16  26  31  32  33  34  35 0
 6-311+G(2d,p)
 ****
 36  37 0
 6-311+G(2d,p)
 ****
 1  2  3  4  5  17  18  19  20  21  22  23  24  25 0
 3-21G
 ****
 27  28  29  30  38  39  40  41  42  43  44  45 0
 3-21G
 ****


