%nproc=1
%NoSave
%Mem=1900MB
#P OB98/GEN NMR

erre ene a

0 1
  C      545.800     -32.622    -411.929
  O      544.462     -33.078    -411.992
  H      545.996     -31.917    -412.744
  H      545.959     -32.118    -410.975
  H      546.492     -33.470    -412.002
  P      544.020     -33.862    -413.317
  C      542.869     -35.504    -411.656
  O      542.775     -34.786    -412.881
  C      541.483     -35.950    -411.217
  O      540.773     -34.828    -410.616
  C      540.587     -36.443    -412.354
  O      540.864     -37.787    -412.698
  C      539.217     -36.308    -411.701
  O      539.008     -37.398    -410.783
  C      539.365     -34.983    -410.942
  N      535.505     -32.960    -413.635
  C      535.657     -34.154    -413.025
  N      536.696     -34.628    -412.332
  C      537.691     -33.708    -412.313
  C      537.699     -32.453    -412.885
  C      536.529     -32.076    -413.587
  N      536.383     -30.866    -414.224
  N      538.906     -31.811    -412.676
  C      539.603     -32.662    -411.942
  N      538.917     -33.819    -411.702
  O      545.206     -34.923    -413.540
  O      543.780     -33.016    -414.528
  H      538.124     -37.245    -410.380
  H      545.212     -35.226    -414.469
  H      534.796     -34.830    -413.107
  H      540.613     -32.487    -411.582
  H      538.806     -34.980    -409.991
  H      538.399     -36.333    -412.435
  H      540.643     -35.786    -413.223
  H      541.597     -36.719    -410.447
  H      543.308     -34.853    -410.894
  H      535.590     -30.770    -414.848
  H      537.190     -30.271    -414.312
  H      543.522     -36.380    -411.806
  P      540.202     -38.354    -414.051
  C      541.416     -40.647    -413.829
  O      540.164     -39.944    -413.894
  O      541.345     -38.106    -415.145
  O      538.902     -37.699    -414.429
  H      540.956     -38.000    -416.040
  H      541.231     -41.696    -413.725
  H      541.977     -40.299    -412.987
  H      541.971     -40.470    -414.726

 6  7  8  9  10  11  12  13  14  15  25  28  32  33  34  35 0
 6-311+G(2d,p)
 ****
 36  39  40 0
 6-311+G(2d,p)
 ****
 1  2  3  4  5  16  17  18  19  20  21  22  23  24 0
 3-21G
 ****
 26  27  29  30  31  37  38  41  42  43  44  45  46  47 0
 3-21G
 ****
 48 0
 3-21G
 ****


