%nproc=1
%NoSave
%Mem=1900MB
#P OB98/GEN NMR

erre ene a

0 1
  C     -234.617     179.648    -528.974
  O     -233.984     179.935    -527.741
  H     -234.003     178.931    -529.527
  H     -234.722     180.550    -529.585
  H     -235.603     179.208    -528.798
  P     -234.616     181.086    -526.819
  C     -236.444     179.479    -525.950
  O     -236.156     180.696    -526.630
  C     -236.942     179.770    -524.539
  O     -235.864     180.288    -523.723
  C     -238.033     180.839    -524.496
  O     -239.271     180.298    -524.919
  C     -237.966     181.264    -523.044
  O     -238.647     180.335    -522.189
  C     -236.439     181.229    -522.781
  N     -235.814     182.543    -522.904
  C     -235.200     183.039    -521.755
  O     -235.188     182.379    -520.718
  N     -234.617     184.281    -521.802
  C     -234.640     184.960    -522.905
  N     -234.055     186.188    -522.900
  C     -235.271     184.472    -524.151
  C     -235.839     183.264    -524.072
  O     -234.381     182.505    -527.254
  O     -233.985     180.793    -525.376
  H     -238.258     179.459    -522.387
  H     -233.143     181.275    -525.264
  H     -235.267     185.072    -525.049
  H     -236.321     182.834    -524.943
  H     -236.229     180.836    -521.773
  H     -238.407     182.246    -522.891
  H     -237.751     181.690    -525.118
  H     -237.283     178.834    -524.085
  H     -233.639     186.493    -522.021
  H     -235.511     178.903    -525.904
  H     -233.933     186.773    -523.714
  H     -237.189     178.885    -526.494
  P     -240.388     181.245    -525.568
  C     -238.753     181.574    -527.542
  O     -239.597     182.206    -526.580
  O     -241.288     181.933    -524.598
  O     -241.167     180.249    -526.565
  H     -241.756     179.636    -526.064
  H     -238.286     182.319    -528.152
  H     -239.339     180.925    -528.158
  H     -238.001     181.004    -527.037

 6  7  8  9  10  11  12  13  14  15  16  26  30  31  32  33  35 0
 6-311+G(2d,p)
 ****
 37  38 0
 6-311+G(2d,p)
 ****
 1  2  3  4  5  17  18  19  20  21  22  23  24  25 0
 3-21G
 ****
 27  28  29  34  36  39  40  41  42  43  44  45  46 0
 3-21G
 ****


