%nproc=1
%NoSave
%Mem=1900MB
#P OB98/GEN NMR

erre ene a

0 1
  C     -151.097    -158.531      17.348
  O     -149.899    -158.344      16.625
  H     -151.178    -157.741      18.099
  H     -151.091    -159.498      17.857
  H     -151.960    -158.467      16.679
  P     -149.505    -159.411      15.496
  C     -147.169    -159.942      16.457
  O     -148.471    -160.438      16.169
  C     -146.115    -160.733      15.670
  O     -146.173    -162.109      16.118
  C     -146.370    -160.705      14.156
  O     -145.229    -160.288      13.409
  C     -146.943    -162.089      13.876
  O     -146.739    -162.549      12.555
  C     -146.305    -162.960      14.963
  N     -147.077    -164.157      15.290
  C     -146.446    -165.387      15.130
  O     -145.289    -165.545      14.749
  N     -147.207    -166.487      15.440
  C     -148.502    -166.475      15.866
  O     -149.130    -167.495      16.131
  C     -149.122    -165.147      15.989
  C     -148.394    -164.066      15.699
  O     -149.054    -158.836      14.196
  O     -150.828    -160.297      15.320
  H     -147.150    -161.891      11.954
  H     -151.275    -160.053      14.488
  H     -146.757    -167.384      15.344
  H     -150.154    -165.102      16.312
  H     -148.819    -163.070      15.779
  H     -145.307    -163.282      14.661
  H     -148.027    -162.053      14.039
  H     -147.124    -159.951      13.902
  H     -145.122    -160.344      15.922
  H     -146.998    -160.048      17.532
  H     -147.112    -158.881      16.188
  P     -145.091    -158.895      12.646
  C     -146.113    -159.777      10.390
  O     -146.167    -158.850      11.465
  O     -143.700    -158.472      12.306
  O     -145.676    -157.823      13.702
  H     -145.181    -156.993      13.553
  H     -146.915    -159.581       9.709
  H     -146.205    -160.772      10.772
  H     -145.178    -159.676       9.879

 6  7  8  9  10  11  12  13  14  15  16  26  31  32  33  34  35 0
 6-311+G(2d,p)
 ****
 36  37 0
 6-311+G(2d,p)
 ****
 1  2  3  4  5  17  18  19  20  21  22  23  24  25 0
 3-21G
 ****
 27  28  29  30  38  39  40  41  42  43  44  45 0
 3-21G
 ****


