%nproc=1
%NoSave
%Mem=1900MB
#P OB98/GEN NMR

erre ene a

0 1
  C     -478.707    1156.023    -662.827
  O     -477.579    1155.938    -661.971
  P     -476.759    1157.292    -661.682
  C     -476.383    1156.568    -659.214
  O     -475.803    1156.964    -660.446
  C     -475.329    1155.920    -658.296
  O     -474.900    1154.664    -658.847
  C     -474.077    1156.740    -658.088
  O     -474.234    1157.742    -657.110
  C     -473.107    1155.683    -657.603
  O     -473.344    1155.405    -656.214
  C     -473.512    1154.445    -658.462
  N     -468.945    1152.934    -660.157
  C     -469.443    1153.039    -658.930
  N     -470.666    1153.471    -658.561
  C     -471.379    1153.838    -659.625
  C     -471.012    1153.805    -660.947
  C     -469.738    1153.318    -661.225
  N     -469.218    1153.172    -662.502
  N     -472.013    1154.266    -661.769
  C     -473.017    1154.544    -660.942
  N     -472.689    1154.293    -659.639
  O     -477.880    1158.242    -661.036
  O     -476.137    1157.919    -662.859
  H     -472.597    1154.906    -655.884
  H     -477.629    1159.181    -661.133
  H     -468.782    1152.755    -658.127
  H     -473.987    1154.915    -661.242
  H     -473.467    1153.513    -657.899
  H     -472.050    1155.961    -657.706
  H     -473.722    1157.171    -659.047
  H     -475.815    1155.707    -657.328
  H     -477.187    1155.836    -659.396
  H     -468.374    1152.655    -662.624
  H     -469.877    1153.257    -663.287
  H     -476.807    1157.454    -658.722
  P     -473.334    1159.046    -657.250
  C     -474.784    1160.584    -655.729
  O     -473.579    1159.904    -655.889
  O     -474.082    1159.909    -658.356
  O     -471.920    1158.764    -657.616
  H     -473.458    1160.505    -658.832
  H     -474.921    1160.820    -654.657
  H     -475.641    1159.956    -656.023
  H     -474.807    1161.521    -656.308
  H     -479.151    1155.055    -662.929
  H     -478.399    1156.377    -663.789
  H     -479.421    1156.701    -662.409

 3  4  5  6  7  8  9  10  11  12  22  25  29  30  31  32 0
 6-311+G(2d,p)
 ****
 33  36  37 0
 6-311+G(2d,p)
 ****
 1  2  13  14  15  16  17  18  19  20  21  23  24  26 0
 3-21G
 ****
 27  28  34  35  38  39  40  41  42  43  44  45  46  47  48 0
 3-21G
 ****


