%nproc=1
%NoSave
%Mem=1900MB
#P OB98/GEN NMR

erre ene a

0 1
  C     -376.698    -256.100     509.809
  O     -377.195    -255.186     510.765
  H     -375.728    -255.748     509.461
  H     -377.376    -256.167     508.950
  H     -376.568    -257.088     510.261
  P     -378.651    -255.438     511.391
  C     -379.478    -252.993     511.516
  O     -379.021    -254.132     512.240
  C     -378.776    -251.728     512.013
  O     -379.005    -251.632     513.441
  C     -377.257    -251.764     511.771
  O     -376.767    -250.614     511.082
  C     -376.688    -252.053     513.163
  O     -375.366    -251.582     513.368
  C     -377.735    -251.437     514.101
  N     -377.750    -252.021     515.431
  C     -377.689    -251.149     516.519
  O     -377.634    -249.924     516.439
  N     -377.689    -251.745     517.756
  C     -377.741    -253.086     518.009
  O     -377.741    -253.551     519.138
  C     -377.785    -253.956     516.819
  C     -377.789    -253.399     515.612
  O     -378.826    -256.733     512.122
  O     -379.640    -255.341     510.131
  H     -375.128    -251.757     514.295
  H     -379.904    -256.236     509.854
  H     -377.643    -251.120     518.547
  H     -377.816    -255.023     516.988
  H     -377.825    -254.011     514.719
  H     -377.572    -250.361     514.213
  H     -376.665    -253.137     513.307
  H     -376.981    -252.594     511.101
  H     -379.239    -250.859     511.539
  H     -380.561    -252.916     511.662
  H     -379.266    -253.136     510.443
  P     -376.082    -250.635     509.639
  C     -374.183    -248.831     509.723
  O     -375.504    -249.170     509.341
  O     -376.881    -251.289     508.560
  O     -374.754    -251.530     509.879
  H     -374.592    -252.007     509.043
  H     -373.979    -247.819     509.443
  H     -373.491    -249.483     509.232
  H     -374.080    -248.935     510.783

 6  7  8  9  10  11  12  13  14  15  16  26  31  32  33  34  35 0
 6-311+G(2d,p)
 ****
 36  37 0
 6-311+G(2d,p)
 ****
 1  2  3  4  5  17  18  19  20  21  22  23  24  25 0
 3-21G
 ****
 27  28  29  30  38  39  40  41  42  43  44  45 0
 3-21G
 ****


