%nproc=1
%NoSave
%Mem=1900MB
#P OB98/GEN NMR

erre ene a

0 1
  C       62.486     -29.517     -11.834
  O       62.069     -29.881     -13.142
  P       60.554     -29.572     -13.569
  C       59.777     -32.003     -13.111
  O       59.624     -30.627     -12.793
  C       58.666     -32.843     -12.482
  O       58.797     -32.794     -11.036
  C       57.246     -32.377     -12.824
  O       56.418     -33.544     -12.876
  C       56.858     -31.546     -11.616
  O       55.446     -31.407     -11.488
  C       57.530     -32.349     -10.505
  N       56.988     -32.223      -5.424
  C       56.703     -33.178      -6.334
  N       56.877     -33.139      -7.670
  C       57.402     -31.959      -8.046
  C       57.711     -30.879      -7.237
  C       57.488     -31.042      -5.859
  N       57.787     -30.074      -4.928
  N       58.204     -29.835      -7.990
  C       58.192     -30.275      -9.231
  N       57.739     -31.561      -9.311
  O       60.507     -30.077     -15.087
  O       60.140     -28.145     -13.456
  H       55.265     -30.777     -10.764
  H       60.408     -29.314     -15.688
  H       56.287     -34.099      -5.934
  H       58.497     -29.706     -10.099
  H       56.949     -33.238     -10.228
  H       57.291     -30.544     -11.701
  H       57.173     -31.817     -13.762
  H       58.810     -33.887     -12.785
  H       60.739     -32.348     -12.720
  H       57.728     -30.316      -3.952
  H       58.333     -29.270      -5.218
  H       59.779     -32.129     -14.198
  P       55.397     -33.657     -14.107
  C       53.310     -32.816     -12.818
  O       54.245     -32.576     -13.851
  O       54.667     -35.060     -13.854
  O       56.051     -33.610     -15.448
  H       54.370     -35.439     -14.702
  H       53.013     -31.860     -12.380
  H       53.726     -33.452     -12.030
  H       52.426     -33.303     -13.240
  H       63.513     -29.785     -11.700
  H       61.886     -30.031     -11.112
  H       62.373     -28.461     -11.705

 3  4  5  6  7  8  9  10  11  12  22  25  29  30  31  32 0
 6-311+G(2d,p)
 ****
 33  36  37 0
 6-311+G(2d,p)
 ****
 1  2  13  14  15  16  17  18  19  20  21  23  24  26 0
 3-21G
 ****
 27  28  34  35  38  39  40  41  42  43  44  45  46  47  48 0
 3-21G
 ****


