%nproc=1
%NoSave
%Mem=1900MB
#P OB98/GEN NMR

erre ene a

0 1
  C       31.640     -59.364    -117.412
  O       31.952     -60.628    -116.853
  P       33.425     -60.853    -116.258
  C       34.333     -61.832    -118.486
  O       34.462     -60.833    -117.486
  C       35.112     -63.092    -118.101
  O       34.850     -64.142    -119.075
  C       36.631     -62.882    -118.056
  O       37.191     -63.712    -117.023
  C       37.102     -63.435    -119.386
  O       38.474     -63.821    -119.337
  C       36.124     -64.591    -119.582
  N       37.728     -67.872    -123.076
  C       37.848     -67.927    -121.701
  N       38.568     -68.954    -121.201
  N       37.307     -67.058    -120.892
  C       36.618     -66.080    -121.537
  C       36.415     -65.929    -122.892
  C       37.035     -66.895    -123.778
  O       36.991     -66.886    -125.003
  N       35.638     -64.836    -123.166
  C       35.400     -64.297    -121.983
  N       36.003     -64.995    -120.967
  O       33.397     -62.396    -115.818
  O       33.771     -59.968    -115.108
  H       38.982     -63.030    -119.063
  H       33.333     -62.455    -114.842
  H       38.174     -68.562    -123.660
  H       34.821     -63.398    -121.809
  H       36.422     -65.473    -118.999
  H       36.991     -62.671    -120.167
  H       39.070     -69.619    -121.772
  H       36.941     -61.843    -117.895
  H       38.706     -68.994    -120.198
  H       34.741     -63.454    -117.137
  H       34.719     -61.446    -119.429
  H       33.270     -62.074    -118.626
  P       38.249     -62.997    -116.047
  C       40.263     -64.115    -117.259
  O       39.620     -62.919    -116.868
  O       38.534     -64.114    -114.935
  O       37.765     -61.715    -115.454
  H       38.823     -63.699    -114.100
  H       40.288     -64.159    -118.352
  H       39.757     -65.004    -116.875
  H       41.290     -64.106    -116.880
  H       30.629     -59.369    -117.763
  H       32.301     -59.162    -118.229
  H       31.754     -58.606    -116.666

 3  4  5  6  7  8  9  10  11  12  23  26  30  31 0
 6-311+G(2d,p)
 ****
 33  35  36  37  38 0
 6-311+G(2d,p)
 ****
 1  2  13  14  15  16  17  18  19  20  21  22  24  25 0
 3-21G
 ****
 27  28  29  32  34  39  40  41  42  43  44  45  46  47  48  49 0
 3-21G
 ****


