%nproc=1
%NoSave
%Mem=1900MB
#P OB98/GEN NMR

erre ene a

0 1
  C      -71.539      11.931     248.818
  O      -72.033      12.472     247.609
  H      -72.322      11.961     249.579
  H      -71.257      10.888     248.647
  H      -70.661      12.483     249.162
  P      -72.226      14.064     247.543
  C      -73.045      13.449     245.156
  O      -73.134      14.355     246.246
  C      -73.780      14.006     243.937
  O      -75.211      13.952     244.195
  C      -73.420      15.463     243.593
  O      -73.372      15.592     242.169
  C      -74.609      16.248     244.122
  O      -74.792      17.490     243.447
  C      -75.746      15.255     243.896
  N      -80.223      17.666     244.028
  C      -79.433      17.283     243.003
  N      -78.275      16.590     243.052
  C      -77.989      16.242     244.319
  C      -78.696      16.553     245.467
  C      -79.861      17.320     245.287
  N      -80.634      17.777     246.333
  N      -78.047      16.058     246.584
  C      -76.957      15.481     246.117
  N      -76.876      15.568     244.754
  O      -70.771      14.568     247.102
  O      -72.683      14.712     248.808
  H      -74.589      17.366     242.498
  H      -70.218      14.701     247.893
  H      -79.771      17.577     242.010
  H      -76.186      15.019     246.720
  H      -76.108      15.252     242.861
  H      -74.469      16.453     245.189
  H      -72.472      15.798     244.030
  H      -73.582      13.349     243.080
  H      -73.508      12.498     245.444
  H      -81.388      18.410     246.118
  H      -80.318      17.620     247.279
  H      -71.993      13.273     244.917
  P      -71.946      15.909     241.504
  C      -73.305      15.973     239.281
  O      -72.188      16.459     240.019
  O      -71.327      14.450     241.263
  O      -71.056      16.754     242.356
  H      -70.355      14.479     241.359
  H      -73.324      16.436     238.316
  H      -74.208      16.206     239.806
  H      -73.223      14.912     239.166

 6  7  8  9  10  11  12  13  14  15  25  28  32  33  34  35 0
 6-311+G(2d,p)
 ****
 36  39  40 0
 6-311+G(2d,p)
 ****
 1  2  3  4  5  16  17  18  19  20  21  22  23  24 0
 3-21G
 ****
 26  27  29  30  31  37  38  41  42  43  44  45  46  47 0
 3-21G
 ****
 48 0
 3-21G
 ****


