%nproc=1
%NoSave
%Mem=1900MB
#P OB98/GEN NMR

erre ene a

0 1
  C     -300.291     -93.966     507.857
  O     -300.066     -93.531     509.188
  H     -300.111     -93.126     507.180
  H     -301.328     -94.292     507.739
  H     -299.609     -94.781     507.602
  P     -300.262     -94.629     510.342
  C     -301.556     -92.955     511.857
  O     -300.430     -93.813     511.716
  C     -301.212     -91.804     512.795
  O     -300.740     -92.337     514.056
  C     -300.093     -90.907     512.294
  O     -300.534     -89.984     511.310
  C     -299.638     -90.242     513.590
  O     -300.469     -89.118     513.922
  C     -299.824     -91.368     514.615
  N     -295.435     -90.831     517.176
  C     -296.535     -90.054     517.103
  N     -297.673     -90.271     516.405
  C     -297.607     -91.456     515.762
  C     -296.557     -92.349     515.743
  C     -295.419     -92.003     516.499
  N     -294.283     -92.777     516.561
  N     -296.848     -93.428     514.926
  C     -298.055     -93.196     514.472
  N     -298.565     -92.012     514.950
  O     -298.809     -95.289     510.465
  O     -301.318     -95.653     510.074
  H     -300.157     -88.798     514.787
  H     -298.793     -96.135     509.981
  H     -296.499     -89.125     517.669
  H     -298.607     -93.832     513.795
  H     -300.258     -91.005     515.556
  H     -298.612     -89.889     513.505
  H     -299.263     -91.515     511.901
  H     -302.125     -91.220     512.992
  H     -302.404     -93.519     512.262
  H     -301.831     -92.572     510.864
  H     -293.488     -92.434     517.062
  H     -294.230     -93.602     515.968
  P     -299.849     -90.039     509.868
  C     -299.212     -87.517     510.110
  O     -299.805     -88.537     509.313
  O     -300.948     -90.754     508.943
  O     -298.546     -90.756     509.831
  H     -300.508     -91.320     508.282
  H     -299.267     -86.582     509.592
  H     -298.187     -87.761     510.297
  H     -299.736     -87.441     511.040

 6  7  8  9  10  11  12  13  14  15  25  28  32  33  34  35 0
 6-311+G(2d,p)
 ****
 36  37  40 0
 6-311+G(2d,p)
 ****
 1  2  3  4  5  16  17  18  19  20  21  22  23  24 0
 3-21G
 ****
 26  27  29  30  31  38  39 41  42  43  44  45  46  47  48 0
 3-21G
 ****


