%nproc=1
%NoSave
%Mem=1900MB
#P OB98/GEN NMR

erre ene a

0 1
  C      564.373     130.461     311.256
  O      563.301     130.993     310.500
  P      563.547     131.256     308.938
  C      565.569     132.422     307.726
  O      564.726     132.339     308.864
  C      566.792     133.297     308.027
  O      567.661     132.611     308.948
  C      567.654     133.620     306.815
  O      567.085     134.641     306.008
  C      568.973     134.008     307.491
  O      568.904     135.367     307.968
  C      569.016     133.029     308.680
  N      569.893     131.879     308.445
  C      571.098     131.879     309.142
  O      571.439     132.776     309.907
  N      571.923     130.806     308.895
  C      571.686     129.791     308.005
  O      572.479     128.885     307.796
  C      570.413     129.869     307.283
  C      569.588     130.893     307.534
  O      562.220     132.074     308.564
  O      563.767     130.008     308.152
  H      561.864     132.554     309.336
  H      568.132     135.400     308.581
  H      572.797     130.773     309.404
  H      570.195     129.096     306.561
  H      568.643     130.968     307.000
  H      569.364     133.553     309.580
  H      569.825     133.942     306.808
  H      567.811     132.716     306.212
  H      566.442     134.220     308.509
  H      564.999     132.870     306.891
  H      565.878     131.420     307.423
  P      567.639     134.764     304.503
  C      570.001     135.263     303.509
  O      569.140     135.298     304.627
  O      566.811     136.026     303.965
  O      567.459     133.517     303.694
  H      566.745     136.748     304.629
  H      570.824     135.978     303.673
  H      569.476     135.543     302.584
  H      570.419     134.262     303.399
  H      564.066     130.340     312.274
  H      565.207     131.130     311.212
  H      564.657     129.511     310.853

 3  4  5  6  7  8  9  10  11  12  13  24  28  29  30  31  32 0
 6-311+G(2d,p)
 ****
 33  34 0
 6-311+G(2d,p)
 ****
 1  2  14  15  16  17  18  19  20  21  22  23  25  26  27 0
 3-21G
 ****
 35  36  37  38  39  40  41  42  43  44  45 0
 3-21G
 ****


