%nproc=1
%NoSave
%Mem=1900MB
#P OB98/GEN NMR

erre ene a

0 1
  C      282.010    1084.974      68.091
  O      282.077    1084.568      69.442
  H      282.957    1084.718      67.607
  H      281.864    1086.055      68.034
  H      281.193    1084.459      67.566
  P      280.749    1084.675      70.348
  C      281.329    1086.678      71.861
  O      281.205    1085.263      71.770
  C      281.580    1087.085      73.317
  O      280.485    1086.650      74.151
  C      282.829    1086.429      73.923
  O      284.015    1087.034      73.466
  C      282.545    1086.618      75.406
  O      282.916    1087.933      75.847
  C      281.015    1086.413      75.483
  N      280.655    1085.093      75.963
  C      280.436    1084.971      77.326
  O      280.542    1085.913      78.134
  N      280.173    1083.704      77.797
  C      280.245    1082.559      77.056
  O      280.249    1081.438      77.543
  C      280.411    1082.754      75.601
  C      280.616    1083.980      75.143
  O      279.914    1083.437      70.413
  O      279.945    1085.898      69.694
  H      279.222    1085.546      69.140
  H      282.801    1087.935      76.820
  H      280.074    1083.610      78.800
  H      280.393    1081.874      74.966
  H      280.763    1084.150      74.068
  H      280.562    1087.179      76.130
  H      283.113    1085.898      76.024
  H      282.841    1085.355      73.699
  H      281.649    1088.179      73.375
  H      280.399    1087.142      71.516
  H      282.156    1087.004      71.222
  P      284.978    1086.261      72.451
  C      287.000    1087.649      73.261
  O      286.246    1087.208      72.136
  O      284.314    1085.685      71.240
  O      285.623    1085.095      73.347
  H      285.550    1084.254      72.877
  H      287.809    1088.265      72.929
  H      287.389    1086.801      73.784
  H      286.368    1088.212      73.915

 6  7  8  9  10  11  12  13  14  15  16  27  31  32  33  34  35 0
 6-311+G(2d,p)
 ****
 36  37 0
 6-311+G(2d,p)
 ****
 1  2  3  4  5  17  18  19  20  21  22  23  24  25 0
 3-21G
 ****
 26  28  29  30  38  39  40  41  42  43  44  45 0
 3-21G
 ****


