%nproc=1
%NoSave
%Mem=1900MB
#P OB98/GEN NMR

erre ene a

0 1
  C     -408.033    -145.222    -446.236
  O     -408.814    -144.136    -445.780
  H     -407.543    -144.936    -447.171
  H     -408.675    -146.087    -446.427
  H     -407.265    -145.481    -445.501
  P     -409.436    -144.245    -444.306
  C     -407.674    -142.576    -443.376
  O     -408.259    -143.866    -443.283
  C     -406.534    -142.445    -442.367
  O     -405.591    -143.532    -442.588
  C     -405.750    -141.127    -442.477
  O     -405.363    -140.721    -441.160
  C     -404.511    -141.530    -443.260
  O     -403.403    -140.664    -443.064
  C     -404.279    -142.945    -442.722
  N     -403.432    -143.747    -443.600
  C     -402.186    -144.132    -443.110
  O     -401.786    -143.920    -441.968
  N     -401.377    -144.793    -444.002
  C     -401.681    -145.077    -445.304
  O     -400.906    -145.654    -446.059
  C     -403.002    -144.638    -445.765
  C     -403.805    -144.002    -444.906
  O     -409.611    -145.821    -444.106
  O     -410.710    -143.495    -444.092
  H     -410.488    -146.112    -444.419
  H     -403.549    -139.872    -443.616
  H     -400.473    -145.077    -443.665
  H     -403.274    -144.837    -446.793
  H     -404.780    -143.648    -445.221
  H     -403.837    -142.906    -441.720
  H     -404.742    -141.550    -444.331
  H     -406.302    -140.318    -442.965
  H     -406.941    -142.573    -441.357
  H     -408.435    -141.818    -443.156
  H     -407.304    -142.420    -444.396
  P     -406.436    -139.898    -440.297
  C     -407.002    -141.979    -438.809
  O     -407.460    -140.993    -439.722
  O     -407.255    -139.154    -441.450
  O     -405.805    -139.000    -439.284
  H     -407.348    -139.687    -442.256
  H     -407.816    -142.618    -438.536
  H     -406.614    -141.502    -437.934
  H     -406.231    -142.561    -439.270

 6  7  8  9  10  11  12  13  14  15  16  27  31  32  33  34  35 0
 6-311+G(2d,p)
 ****
 36  37 0
 6-311+G(2d,p)
 ****
 1  2  3  4  5  17  18  19  20  21  22  23  24  25 0
 3-21G
 ****
 26  28  29  30  38  39  40  41  42  43  44  45 0
 3-21G
 ****


