%nproc=1
%NoSave
%Mem=1900MB
#P OB98/GEN NMR

erre ene a

0 1
  C     1393.936     383.265    -157.764
  O     1393.124     382.831    -158.844
  H     1394.254     382.394    -157.201
  H     1393.360     383.926    -157.109
  H     1394.823     383.795    -158.135
  P     1392.559     383.969    -159.828
  C     1392.128     382.158    -161.645
  O     1391.597     383.226    -160.872
  C     1391.033     381.536    -162.495
  O     1390.493     382.526    -163.397
  C     1391.527     380.392    -163.398
  O     1391.660     379.183    -162.685
  C     1390.403     380.360    -164.438
  O     1389.286     379.610    -163.989
  C     1390.026     381.840    -164.582
  N     1388.998     383.776    -169.212
  C     1388.196     383.321    -168.217
  N     1388.544     382.836    -166.998
  C     1389.888     382.865    -166.845
  C     1390.842     383.288    -167.773
  C     1390.338     383.763    -169.004
  N     1391.159     384.197    -170.031
  N     1392.120     383.123    -167.281
  C     1391.937     382.607    -166.083
  N     1390.617     382.441    -165.782
  O     1393.849     384.365    -160.704
  O     1391.975     385.162    -159.153
  H     1388.601     379.676    -164.675
  H     1394.248     385.180    -160.357
  H     1387.123     383.366    -168.409
  H     1392.741     382.324    -165.398
  H     1388.943     381.990    -164.651
  H     1390.755     379.897    -165.360
  H     1392.461     380.688    -163.878
  H     1390.214     381.204    -161.841
  H     1392.526     381.389    -160.963
  H     1392.945     382.542    -162.264
  H     1390.736     384.445    -170.902
  H     1392.150     384.087    -169.936
  P     1392.988     378.322    -162.943
  C     1391.996     376.238    -161.711
  O     1392.560     376.771    -162.891
  O     1393.850     378.511    -161.582
  O     1393.768     378.726    -164.157
  H     1394.787     378.562    -161.805
  H     1391.775     375.201    -161.858
  H     1391.095     376.765    -161.477
  H     1392.691     376.344    -160.904

 6  7  8  9  10  11  12  13  14  15  25  28  32  33  34  35 0
 6-311+G(2d,p)
 ****
 36  37  40 0
 6-311+G(2d,p)
 ****
 1  2  3  4  5  16  17  18  19  20  21  22  23  24 0
 3-21G
 ****
 26  27  29  30  31  38  39 41  42  43  44  45  46  47  48 0
 3-21G
 ****


