%nproc=1
%NoSave
%Mem=1900MB
#P OB98/GEN NMR

erre ene a

0 1
  C       68.353    -894.290    -365.700
  O       69.610    -893.730    -365.381
  H       67.619    -893.480    -365.786
  H       68.031    -894.980    -364.915
  H       68.402    -894.820    -366.664
  P       70.848    -894.710    -365.131
  C       72.161    -893.870    -367.189
  O       71.526    -894.980    -366.574
  C       72.947    -894.320    -368.427
  O       74.145    -895.020    -367.956
  C       72.144    -895.300    -369.299
  O       72.082    -894.910    -370.664
  C       72.791    -896.660    -368.983
  O       72.669    -897.620    -370.004
  C       74.239    -896.280    -368.612
  N       74.896    -897.260    -367.751
  C       75.859    -898.070    -368.326
  O       76.217    -898.010    -369.504
  N       76.452    -898.990    -367.483
  C       76.153    -899.160    -366.162
  O       76.724    -900.000    -365.465
  C       75.114    -898.270    -365.612
  C       74.536    -897.390    -366.409
  O       70.556    -895.940    -364.343
  O       71.934    -893.780    -364.391
  H       73.027    -898.470    -369.666
  H       71.937    -893.980    -363.431
  H       77.153    -899.570    -367.890
  H       74.841    -898.420    -364.592
  H       73.745    -896.740    -366.051
  H       74.831    -896.160    -369.516
  H       72.295    -897.080    -368.093
  H       71.101    -895.330    -368.985
  H       73.260    -893.440    -369.003
  H       72.847    -893.410    -366.455
  H       71.399    -893.140    -367.490
  P       70.745    -894.870    -371.536
  C       71.047    -892.340    -372.131
  O       70.232    -893.360    -371.574
  O       69.729    -895.920    -371.229
  O       71.276    -895.130    -373.054
  H       70.556    -895.630    -373.509
  H       70.537    -891.401    -372.067
  H       71.250    -892.566    -373.157
  H       71.968    -892.283    -371.589

 6  7  8  9  10  11  12  13  14  15  16  26  31  32  33  34  35 0
 6-311+G(2d,p)
 ****
 36  37 0
 6-311+G(2d,p)
 ****
 1  2  3  4  5  17  18  19  20  21  22  23  24  25 0
 3-21G
 ****
 27  28  29  30  38  39  40  41  42  43  44  45 0
 3-21G
 ****


