%nproc=1
%NoSave
%Mem=1900MB
#P OB98/GEN NMR

erre ene a

0 1
  C     -540.949    -768.802    1051.877
  O     -541.470    -770.040    1052.317
  P     -542.843    -770.127    1053.144
  C     -543.634    -771.412    1051.051
  O     -543.644    -771.345    1052.469
  C     -544.771    -772.278    1050.540
  O     -544.654    -773.591    1051.123
  C     -546.186    -771.796    1050.892
  O     -546.725    -770.808    1049.992
  C     -546.971    -773.087    1050.746
  O     -547.234    -773.339    1049.342
  C     -545.991    -774.116    1051.301
  N     -548.056    -777.463    1054.582
  C     -547.946    -777.473    1053.229
  N     -547.388    -776.544    1052.426
  C     -546.894    -775.524    1053.140
  C     -546.927    -775.397    1054.531
  C     -547.539    -776.416    1055.263
  N     -547.636    -776.412    1056.637
  N     -546.313    -774.198    1054.916
  C     -545.914    -773.651    1053.800
  N     -546.226    -774.426    1052.688
  O     -543.582    -768.834    1053.246
  O     -542.410    -770.708    1054.558
  H     -547.835    -772.632    1049.032
  H     -543.121    -770.559    1055.211
  H     -548.343    -778.337    1052.721
  H     -545.405    -772.707    1053.707
  H     -546.019    -775.088    1050.737
  H     -547.943    -773.043    1051.226
  H     -546.250    -771.450    1051.933
  H     -544.656    -772.386    1049.433
  H     -542.677    -771.849    1050.732
  H     -547.982    -777.284    1057.099
  H     -547.120    -775.726    1057.154
  H     -543.677    -770.387    1050.636
  P     -547.928    -769.911    1050.543
  C     -546.560    -767.914    1051.565
  O     -547.377    -768.404    1050.526
  O     -548.488    -770.353    1051.845
  O     -548.964    -769.935    1049.328
  H     -548.669    -769.491    1048.501
  H     -546.174    -766.950    1051.280
  H     -545.722    -768.585    1051.753
  H     -547.162    -767.805    1052.484
  H     -540.033    -768.968    1051.349
  H     -540.764    -768.172    1052.722
  H     -541.655    -768.329    1051.227

 3  4  5  6  7  8  9  10  11  12  22  25  29  30  31  32 0
 6-311+G(2d,p)
 ****
 33  36  37 0
 6-311+G(2d,p)
 ****
 1  2  13  14  15  16  17  18  19  20  21  23  24  26 0
 3-21G
 ****
 27  28  34  35  38  39  40  41  42  43  44  45  46  47  48 0
 3-21G
 ****


