%nproc=1
%NoSave
%Mem=1900MB
#P OB98/GEN NMR

erre ene a

0 1
  C      308.883    -150.638    -242.941
  O      309.238    -149.738    -241.907
  H      309.735    -150.777    -243.613
  H      308.632    -151.604    -242.490
  H      308.019    -150.271    -243.498
  P      309.356    -148.190    -242.298
  C      306.864    -147.619    -241.834
  O      307.900    -147.735    -242.803
  C      306.660    -146.161    -241.432
  O      306.216    -145.418    -242.604
  C      305.626    -145.941    -240.320
  O      306.096    -144.900    -239.451
  C      304.400    -145.450    -241.070
  O      303.540    -144.661    -240.256
  C      305.047    -144.673    -242.206
  N      302.621    -141.216    -245.044
  C      303.667    -141.120    -244.202
  N      304.296    -142.103    -243.526
  C      303.770    -143.301    -243.840
  C      302.703    -143.566    -244.690
  C      302.109    -142.446    -245.299
  N      300.995    -142.536    -246.104
  N      302.429    -144.922    -244.712
  C      303.297    -145.463    -243.870
  N      304.129    -144.518    -243.318
  O      310.223    -148.236    -243.648
  O      309.983    -147.303    -241.267
  H      302.673    -144.587    -240.696
  H      311.172    -148.221    -243.427
  H      304.052    -140.110    -244.041
  H      303.346    -146.508    -243.603
  H      305.369    -143.659    -241.908
  H      303.835    -146.304    -241.448
  H      305.413    -146.843    -239.727
  H      307.635    -145.740    -241.139
  H      307.144    -148.198    -240.940
  H      300.567    -141.669    -246.411
  H      300.536    -143.426    -246.211
  H      305.937    -148.032    -242.245
  P      307.121    -145.305    -238.284
  C      309.334    -144.396    -239.315
  O      308.565    -145.534    -238.947
  O      306.653    -146.782    -237.886
  O      307.092    -144.382    -237.112
  H      306.814    -146.939    -236.940
  H      310.263    -144.715    -239.739
  H      309.525    -143.799    -238.448
  H      308.793    -143.818    -240.035

 6  7  8  9  10  11  12  13  14  15  25  28  32  33  34  35 0
 6-311+G(2d,p)
 ****
 36  39  40 0
 6-311+G(2d,p)
 ****
 1  2  3  4  5  16  17  18  19  20  21  22  23  24 0
 3-21G
 ****
 26  27  29  30  31  37  38  41  42  43  44  45  46  47 0
 3-21G
 ****
 48 0
 3-21G
 ****


