%nproc=1
%NoSave
%Mem=1900MB
#P OB98/GEN NMR

erre ene a

0 1
  C      167.523    -224.264    -126.297
  O      168.125    -223.165    -125.607
  P      167.201    -222.291    -124.620
  C      167.417    -220.005    -125.825
  O      166.550    -221.082    -125.462
  C      166.608    -218.754    -126.187
  O      165.678    -219.079    -127.249
  C      165.748    -218.194    -125.039
  O      166.336    -217.237    -124.155
  C      164.661    -217.455    -125.818
  O      165.137    -216.141    -126.196
  C      164.458    -218.310    -127.073
  N      159.765    -219.251    -128.873
  C      160.674    -218.286    -129.157
  N      161.903    -218.106    -128.635
  C      162.174    -219.060    -127.735
  C      161.354    -220.106    -127.323
  C      160.084    -220.184    -127.944
  N      159.167    -221.157    -127.637
  N      161.977    -220.875    -126.367
  C      163.150    -220.292    -126.177
  N      163.324    -219.193    -126.986
  O      167.827    -221.905    -123.324
  O      165.943    -223.256    -124.392
  H      164.543    -215.826    -126.899
  H      165.646    -223.165    -123.459
  H      160.366    -217.558    -129.913
  H      163.899    -220.624    -125.463
  H      164.330    -217.701    -127.971
  H      163.756    -217.304    -125.227
  H      165.298    -219.003    -124.458
  H      167.286    -217.973    -126.552
  H      168.031    -220.309    -126.684
  H      158.268    -221.114    -128.091
  H      159.368    -221.829    -126.914
  H      168.103    -219.848    -124.986
  P      166.918    -217.671    -122.729
  C      164.733    -218.929    -121.987
  O      166.113    -219.003    -122.323
  O      166.913    -216.596    -121.689
  O      168.368    -218.223    -123.103
  H      168.361    -219.056    -123.605
  H      164.327    -219.947    -121.959
  H      164.181    -218.354    -122.738
  H      164.617    -218.464    -121.003
  H      168.256    -224.745    -126.910
  H      166.724    -223.905    -126.912
  H      167.138    -224.964    -125.585

 3  4  5  6  7  8  9  10  11  12  22  25  29  30  31  32 0
 6-311+G(2d,p)
 ****
 33  36  37 0
 6-311+G(2d,p)
 ****
 1  2  13  14  15  16  17  18  19  20  21  23  24  26 0
 3-21G
 ****
 27  28  34  35  38  39  40  41  42  43  44  45  46  47  48 0
 3-21G
 ****


