%nproc=1
%NoSave
%Mem=1900MB
#P OB98/GEN NMR

erre ene a

0 1
  C     -200.173    -655.767    -245.295
  O     -198.772    -655.944    -245.288
  H     -200.611    -656.392    -244.510
  H     -200.589    -656.076    -246.257
  H     -200.424    -654.722    -245.099
  P     -197.937    -655.161    -246.411
  C     -197.090    -655.830    -248.777
  O     -198.070    -656.011    -247.763
  C     -197.437    -656.690    -249.991
  O     -197.270    -658.091    -249.659
  C     -198.877    -656.550    -250.460
  O     -199.084    -655.369    -251.218
  C     -199.038    -657.819    -251.284
  O     -198.534    -657.645    -252.618
  C     -198.181    -658.836    -250.499
  N     -199.001    -659.772    -249.723
  C     -198.717    -661.123    -249.917
  O     -197.838    -661.527    -250.678
  N     -199.505    -661.997    -249.227
  C     -200.559    -661.665    -248.414
  O     -201.272    -662.507    -247.878
  C     -200.800    -660.225    -248.243
  C     -200.029    -659.352    -248.907
  O     -196.414    -655.392    -245.962
  O     -198.269    -653.711    -246.549
  H     -196.069    -654.589    -245.534
  H     -197.616    -657.324    -252.523
  H     -199.321    -662.985    -249.357
  H     -201.620    -659.928    -247.600
  H     -200.204    -658.284    -248.809
  H     -197.559    -659.430    -251.185
  H     -200.084    -658.114    -251.380
  H     -199.563    -656.600    -249.605
  H     -196.735    -656.444    -250.802
  H     -196.108    -656.131    -248.394
  H     -197.056    -654.769    -249.049
  P     -200.483    -654.598    -251.070
  C     -202.998    -655.362    -251.060
  O     -201.634    -655.707    -251.231
  O     -200.531    -653.781    -252.443
  O     -200.581    -653.764    -249.834
  H     -200.142    -654.267    -253.190
  H     -203.606    -656.230    -251.207
  H     -203.268    -654.612    -251.774
  H     -203.149    -654.984    -250.071

 6  7  8  9  10  11  12  13  14  15  16  27  31  32  33  34  35 0
 6-311+G(2d,p)
 ****
 36  37 0
 6-311+G(2d,p)
 ****
 1  2  3  4  5  17  18  19  20  21  22  23  24  25 0
 3-21G
 ****
 26  28  29  30  38  39  40  41  42  43  44  45 0
 3-21G
 ****


