%nproc=1
%NoSave
%Mem=1900MB
#P OB98/GEN NMR

erre ene a

0 1
  C      102.590     304.962     167.374
  O      103.080     303.710     167.805
  H      101.759     304.795     166.685
  H      103.376     305.508     166.846
  H      102.227     305.558     168.216
  P      104.103     303.661     169.039
  C      106.617     304.173     169.282
  O      105.421     304.444     168.564
  C      107.801     304.926     168.668
  O      108.013     304.448     167.308
  C      107.602     306.448     168.591
  O      108.895     307.058     168.716
  C      107.075     306.623     167.182
  O      107.188     307.956     166.744
  C      107.918     305.587     166.431
  N      107.351     305.238     165.128
  C      107.355     306.231     164.161
  O      107.777     307.372     164.368
  N      106.815     305.898     162.952
  C      106.229     304.705     162.644
  O      105.731     304.468     161.549
  C      106.214     303.702     163.722
  C      106.774     304.006     164.897
  O      104.353     302.309     169.617
  O      103.471     304.665     170.115
  H      106.718     308.075     165.890
  H      103.702     304.375     171.018
  H      106.823     306.607     162.234
  H      105.746     302.747     163.511
  H      106.775     303.290     165.710
  H      108.937     305.966     166.266
  H      106.015     306.351     167.133
  H      106.923     306.832     169.356
  H      108.707     304.677     169.235
  H      106.803     303.094     169.238
  H      106.492     304.471     170.328
  P      109.703     307.070     170.104
  C      109.528     308.228     172.400
  O      109.098     308.228     171.042
  O      111.189     307.126     169.951
  O      109.257     305.722     170.845
  H      109.973     305.422     171.438
  H      109.062     309.038     172.922
  H      110.591     308.344     172.438
  H      109.254     307.302     172.861

 6  7  8  9  10  11  12  13  14  15  16  26  31  32  33  34  35 0
 6-311+G(2d,p)
 ****
 36  37 0
 6-311+G(2d,p)
 ****
 1  2  3  4  5  17  18  19  20  21  22  23  24  25 0
 3-21G
 ****
 27  28  29  30  38  39  40  41  42  43  44  45 0
 3-21G
 ****


