%nproc=1
%NoSave
%Mem=1900MB
#P OB98/GEN NMR

erre ene a

0 1
  C     -700.107     665.538       5.506
  O     -699.374     664.456       6.033
  H     -699.937     666.440       6.103
  H     -699.760     665.736       4.484
  H     -701.172     665.299       5.480
  P     -699.695     664.033       7.550
  C     -698.193     665.888       8.578
  O     -699.508     665.347       8.462
  C     -698.112     666.786       9.794
  O     -698.644     666.041      10.946
  C     -696.671     667.243      10.171
  O     -696.612     668.673      10.189
  C     -696.448     666.732      11.583
  O     -695.775     667.668      12.425
  C     -697.870     666.455      12.094
  N     -696.943     665.529      17.008
  C     -697.220     666.671      16.352
  N     -697.565     666.834      15.061
  C     -697.641     665.650      14.436
  C     -697.406     664.396      14.969
  C     -697.023     664.345      16.327
  N     -696.682     663.177      16.973
  N     -697.554     663.410      14.007
  C     -697.846     664.065      12.904
  N     -697.875     665.420      13.101
  O     -698.443     663.120       7.951
  O     -700.989     663.311       7.741
  H     -696.386     668.425      12.550
  H     -698.765     662.292       8.370
  H     -697.143     667.578      16.947
  H     -697.996     663.625      11.916
  H     -698.341     667.362      12.509
  H     -695.866     665.809      11.542
  H     -695.921     666.844       9.484
  H     -698.758     667.653       9.659
  H     -697.962     666.475       7.684
  H     -696.316     663.260      17.908
  H     -696.642     662.321      16.443
  H     -697.477     665.055       8.630
  P     -696.102     669.396       8.843
  C     -693.723     669.678       9.864
  O     -694.515     669.210       8.766
  O     -696.279     670.947       9.175
  O     -696.867     668.992       7.620
  H     -696.422     671.456       8.350
  H     -692.689     669.484       9.666
  H     -694.017     669.169      10.758
  H     -693.871     670.730       9.988

 6  7  8  9  10  11  12  13  14  15  25  28  32  33  34  35 0
 6-311+G(2d,p)
 ****
 36  39  40 0
 6-311+G(2d,p)
 ****
 1  2  3  4  5  16  17  18  19  20  21  22  23  24 0
 3-21G
 ****
 26  27  29  30  31  37  38  41  42  43  44  45  46  47  48 0
 3-21G
 ****


