%nproc=1
%NoSave
%Mem=1900MB
#P OB98/GEN NMR

erre ene a

0 1
  C      619.968     484.512     324.426
  O      620.201     485.837     324.862
  H      620.363     484.398     323.412
  H      618.892     484.311     324.409
  H      620.468     483.800     325.086
  P      619.900     486.143     326.406
  C      618.444     487.984     327.569
  O      618.616     487.112     326.467
  C      617.229     488.887     327.335
  O      617.430     489.725     326.183
  C      615.944     488.138     327.019
  O      615.397     487.490     328.143
  C      615.072     489.273     326.497
  O      614.441     489.985     327.560
  C      616.106     490.168     325.779
  N      615.946     490.142     324.333
  C      615.088     491.137     323.807
  O      614.569     491.950     324.560
  N      614.834     491.138     322.463
  C      615.356     490.205     321.711
  N      615.035     490.252     320.385
  C      616.259     489.158     322.222
  C      616.505     489.187     323.532
  O      621.110     487.116     326.799
  O      619.780     484.930     327.273
  H      613.964     490.735     327.153
  H      621.244     487.846     326.184
  H      616.670     488.429     321.548
  H      617.150     488.437     323.986
  H      616.012     491.215     326.112
  H      614.279     488.906     325.844
  H      616.110     487.428     326.202
  H      617.099     489.531     328.222
  H      614.373     490.968     320.090
  H      619.336     488.586     327.729
  H      615.314     489.543     319.716
  H      618.298     487.366     328.468
  P      614.561     486.137     328.014
  C      612.223     485.481     327.128
  O      613.226     486.489     327.179
  O      614.300     485.405     329.283
  O      615.407     485.297     326.936
  H      615.517     485.727     326.075
  H      611.394     485.832     326.550
  H      611.895     485.254     328.121
  H      612.626     484.599     326.675

 6  7  8  9  10  11  12  13  14  15  16  26  30  31  32  33  35 0
 6-311+G(2d,p)
 ****
 37  38 0
 6-311+G(2d,p)
 ****
 1  2  3  4  5  17  18  19  20  21  22  23  24  25 0
 3-21G
 ****
 27  28  29  34  36  39  40  41  42  43  44  45  46 0
 3-21G
 ****


