%nproc=1
%NoSave
%Mem=1900MB
#P OB98/GEN NMR

erre ene a

0 1
  C      -10.987    -143.457      60.298
  O      -10.624    -142.935      61.564
  P       -9.442    -143.678      62.360
  C      -10.860    -145.811      62.800
  O      -10.151    -144.712      63.363
  C      -10.482    -147.125      63.485
  O      -11.206    -148.209      62.853
  C       -8.989    -147.455      63.428
  O       -8.630    -148.074      64.663
  C       -8.897    -148.481      62.316
  O       -7.744    -149.310      62.456
  C      -10.242    -149.210      62.468
  N      -10.641    -149.894      61.242
  C      -10.073    -151.149      61.005
  O       -9.218    -151.593      61.772
  N      -10.447    -151.844      59.882
  C      -11.237    -151.287      59.016
  N      -11.581    -152.016      57.921
  C      -11.760    -149.915      59.169
  C      -11.443    -149.293      60.303
  O       -8.894    -142.535      63.335
  O       -8.368    -144.245      61.491
  H       -7.888    -149.904      63.226
  H       -7.937    -142.642      63.494
  H      -12.385    -149.484      58.399
  H      -11.801    -148.293      60.511
  H      -10.190    -149.950      63.278
  H       -8.843    -147.976      61.343
  H       -8.365    -146.571      63.261
  H      -10.819    -147.075      64.529
  H      -11.197    -152.949      57.833
  H      -10.604    -145.894      61.739
  H      -12.188    -151.665      57.195
  H      -11.935    -145.628      62.878
  P       -7.902    -147.166      65.768
  C       -5.585    -147.572      64.741
  O       -6.414    -147.753      65.872
  O       -8.562    -147.724      67.121
  O       -8.042    -145.685      65.669
  H       -8.244    -147.201      67.879
  H       -4.570    -147.892      64.995
  H       -5.561    -146.520      64.447
  H       -5.948    -148.186      63.911
  H      -11.780    -142.870      59.884
  H      -11.314    -144.470      60.410
  H      -10.141    -143.426      59.643

 3  4  5  6  7  8  9  10  11  12  13  21  23  27  28  29  30  32 0
 6-311+G(2d,p)
 ****
 34  35 0
 6-311+G(2d,p)
 ****
 1  2  14  15  16  17  18  19  20  22  24  25  26 0
 3-21G
 ****
 31  33  36  37  38  39  40  41  42  43  44  45  46 0
 3-21G
 ****


