%nproc=1
%NoSave
%Mem=1900MB
#P OB98/GEN NMR

erre ene a

0 1
  C     -334.229      34.978     113.516
  O     -334.439      35.137     112.121
  P     -333.752      34.147     111.062
  C     -332.749      35.934     109.510
  O     -333.763      34.953     109.675
  C     -332.813      36.527     108.104
  O     -332.591      35.461     107.152
  C     -334.147      37.151     107.705
  O     -334.320      38.495     108.127
  C     -334.036      37.113     106.185
  O     -333.201      38.194     105.732
  C     -333.339      35.770     105.949
  N     -335.216      32.665     102.339
  C     -334.256      33.616     102.305
  N     -333.826      34.414     103.304
  C     -334.468      34.124     104.449
  C     -335.464      33.182     104.639
  C     -335.840      32.426     103.515
  N     -336.803      31.442     103.557
  N     -335.896      33.186     105.952
  C     -335.160      34.110     106.540
  N     -334.280      34.698     105.678
  O     -334.339      32.779     111.024
  O     -332.205      34.149     111.465
  H     -333.625      39.022     106.024
  H     -331.753      33.385     111.057
  H     -333.769      33.759     101.344
  H     -335.237      34.383     107.584
  H     -332.623      35.808     105.120
  H     -334.999      37.225     105.684
  H     -334.992      36.525     108.021
  H     -331.996      37.251     107.997
  H     -331.775      35.450     109.653
  H     -336.915      30.866     102.741
  H     -337.149      31.154     104.464
  H     -332.859      36.710     110.272
  P     -335.811      38.957     108.522
  C     -335.859      41.110     107.038
  O     -335.838      40.549     108.331
  O     -336.280      38.459     109.843
  O     -336.684      38.421     107.291
  H     -336.515      38.864     106.442
  H     -336.038      42.185     107.126
  H     -336.661      40.673     106.434
  H     -334.898      40.955     106.543
  H     -334.771      35.733     114.047
  H     -333.185      35.069     113.732
  H     -334.573      34.012     113.821

 3  4  5  6  7  8  9  10  11  12  22  25  29  30  31  32 0
 6-311+G(2d,p)
 ****
 33  36  37 0
 6-311+G(2d,p)
 ****
 1  2  13  14  15  16  17  18  19  20  21  23  24  26 0
 3-21G
 ****
 27  28  34  35  38  39  40  41  42  43  44  45  46  47  48 0
 3-21G
 ****


