%nproc=1
%NoSave
%Mem=1900MB
#P OB98/GEN NMR

erre ene a

0 1
  C     -278.596    -159.118      74.505
  O     -278.971    -158.986      73.127
  P     -280.505    -158.951      72.661
  C     -280.987    -156.456      73.083
  O     -280.845    -157.484      72.106
  C     -281.777    -155.262      72.538
  O     -281.968    -154.265      73.560
  C     -281.112    -154.545      71.367
  O     -281.308    -155.264      70.164
  C     -281.800    -153.184      71.423
  O     -283.090    -153.246      70.793
  C     -281.952    -152.968      72.935
  N     -280.818    -148.356      74.830
  C     -281.974    -148.886      74.377
  N     -282.196    -150.123      73.883
  C     -281.067    -150.851      73.907
  C     -279.812    -150.442      74.337
  C     -279.707    -149.127      74.816
  N     -278.524    -148.584      75.263
  N     -278.892    -151.457      74.186
  C     -279.580    -152.466      73.690
  N     -280.898    -152.149      73.504
  O     -281.471    -159.455      73.686
  O     -280.550    -159.864      71.346
  H     -282.968    -153.652      69.916
  H     -281.438    -160.258      71.250
  H     -282.841    -148.228      74.416
  H     -279.175    -153.441      73.455
  H     -282.907    -152.489      73.181
  H     -281.227    -152.400      70.919
  H     -280.042    -154.418      71.564
  H     -282.772    -155.626      72.247
  H     -279.987    -156.125      73.386
  H     -278.524    -147.621      75.561
  H     -277.682    -149.137      75.212
  H     -281.499    -156.875      73.957
  P     -280.102    -155.435      69.125
  C     -278.795    -157.519      69.856
  O     -279.802    -157.005      69.002
  O     -278.907    -154.577      69.376
  O     -280.772    -155.096      67.709
  H     -280.095    -154.719      67.114
  H     -277.813    -157.297      69.436
  H     -278.918    -158.601      69.928
  H     -278.873    -157.084      70.858
  H     -277.529    -159.119      74.586
  H     -278.984    -160.036      74.894
  H     -278.996    -158.297      75.064

 3  4  5  6  7  8  9  10  11  12  22  25  29  30  31  32 0
 6-311+G(2d,p)
 ****
 33  36  37 0
 6-311+G(2d,p)
 ****
 1  2  13  14  15  16  17  18  19  20  21  23  24  26 0
 3-21G
 ****
 27  28  34  35  38  39  40  41  42  43  44  45  46  47  48 0
 3-21G
 ****


