%nproc=1
%NoSave
%Mem=1900MB
#P OB98/GEN NMR

erre ene a

0 1
  C      291.761     -77.597    -120.362
  O      292.964     -76.984    -120.793
  P      293.611     -77.336    -122.215
  C      294.171     -74.848    -122.839
  O      294.619     -76.169    -122.611
  C      295.371     -73.985    -123.270
  O      296.274     -73.801    -122.158
  C      296.153     -74.634    -124.406
  O      295.712     -74.131    -125.660
  C      297.588     -74.263    -124.075
  O      297.883     -72.932    -124.521
  C      297.576     -74.328    -122.529
  N      297.739     -75.649    -121.884
  C      299.001     -76.239    -121.852
  O      300.019     -75.719    -122.311
  N      299.049     -77.493    -121.293
  C      297.997     -78.163    -120.730
  O      298.003     -79.359    -120.455
  C      296.775     -77.375    -120.551
  C      296.696     -76.183    -121.146
  O      292.382     -77.127    -123.221
  O      294.204     -78.701    -122.329
  H      297.765     -72.913    -125.488
  H      291.969     -77.985    -123.439
  H      299.936     -77.990    -121.387
  H      295.958     -77.809    -119.991
  H      295.782     -75.595    -121.060
  H      298.340     -73.664    -122.107
  H      298.282     -74.914    -124.595
  H      296.052     -75.724    -124.362
  H      295.004     -72.993    -123.568
  H      293.720     -74.446    -121.932
  H      293.408     -74.841    -123.625
  P      296.341     -74.720    -127.015
  C      293.958     -74.898    -127.953
  O      295.271     -74.394    -128.161
  O      296.793     -76.141    -126.946
  O      297.562     -73.722    -127.317
  H      298.395     -74.118    -126.994
  H      293.292     -74.455    -128.698
  H      293.601     -74.639    -126.953
  H      293.966     -75.985    -128.067
  H      291.500     -77.228    -119.392
  H      291.898     -78.657    -120.315
  H      290.977     -77.369    -121.053

 3  4  5  6  7  8  9  10  11  12  13  23  28  29  30  31  32 0
 6-311+G(2d,p)
 ****
 33  34 0
 6-311+G(2d,p)
 ****
 1  2  14  15  16  17  18  19  20  21  22  24  25  26  27 0
 3-21G
 ****
 35  36  37  38  39  40  41  42  43  44  45 0
 3-21G
 ****


