%nproc=1
%NoSave
%Mem=1900MB
#P OB98/GEN NMR

erre ene a

0 1
  C      394.885    1121.981     541.479
  O      394.577    1120.598     541.554
  P      395.471    1119.510     540.789
  C      393.218    1118.499     539.886
  O      394.537    1118.300     540.363
  C      392.681    1117.173     539.327
  O      393.499    1116.733     538.216
  C      392.692    1116.083     540.390
  O      391.412    1116.004     541.030
  C      393.039    1114.848     539.586
  O      391.865    1114.325     538.916
  C      394.032    1115.421     538.538
  N      395.443    1115.590     538.951
  C      396.450    1115.427     538.011
  O      396.257    1115.174     536.821
  N      397.742    1115.550     538.492
  C      398.081    1115.851     539.780
  O      399.204    1115.713     540.242
  C      396.975    1116.271     540.643
  C      395.731    1116.105     540.209
  O      396.374    1118.904     541.955
  O      396.298    1120.045     539.664
  H      391.191    1114.180     539.591
  H      397.253    1119.301     541.961
  H      398.479    1115.299     537.841
  H      397.214    1116.657     541.626
  H      394.897    1116.381     540.842
  H      394.025    1114.822     537.622
  H      393.405    1114.051     540.234
  H      393.491    1116.268     541.111
  H      391.656    1117.341     538.951
  H      393.235    1119.275     539.094
  H      392.580    1118.874     540.676
  P      391.269    1116.519     542.536
  C      390.049    1114.642     543.792
  O      389.911    1115.859     543.078
  O      391.376    1118.006     542.716
  O      392.432    1115.748     543.310
  H      393.205    1116.329     543.405
  H      389.086    1114.388     544.243
  H      390.811    1114.748     544.575
  H      390.329    1113.833     543.104
  H      394.174    1122.536     542.054
  H      394.846    1122.300     540.459
  H      395.868    1122.149     541.868

 3  4  5  6  7  8  9  10  11  12  13  23  28  29  30  31  32 0
 6-311+G(2d,p)
 ****
 33  34 0
 6-311+G(2d,p)
 ****
 1  2  14  15  16  17  18  19  20  21  22  24  25  26  27 0
 3-21G
 ****
 35  36  37  38  39  40  41  42  43  44  45 0
 3-21G
 ****


