%nproc=1
%NoSave
%Mem=1900MB
#P OB98/GEN NMR

erre ene a

0 1
  C      338.574    -954.687     273.584
  O      339.196    -953.560     272.991
  P      338.263    -952.273     272.692
  C      339.475    -951.041     274.660
  O      338.247    -951.425     274.068
  C      339.487    -949.542     274.935
  O      338.522    -949.213     275.954
  C      340.821    -949.008     275.421
  O      341.706    -948.785     274.336
  C      340.398    -947.728     276.133
  O      340.192    -946.657     275.192
  C      339.070    -948.153     276.781
  N      340.645    -946.889     281.415
  C      340.820    -946.227     280.210
  N      341.477    -945.055     280.254
  N      340.388    -946.703     279.062
  C      339.783    -947.901     279.182
  C      339.567    -948.656     280.318
  C      339.979    -948.103     281.571
  O      339.768    -948.588     282.676
  N      338.889    -949.813     280.028
  C      338.708    -949.771     278.721
  N      339.207    -948.609     278.154
  O      336.795    -952.919     272.634
  O      338.617    -951.494     271.477
  H      339.999    -945.834     275.685
  H      336.526    -953.051     271.699
  H      340.979    -946.476     282.279
  H      338.216    -950.521     278.124
  H      338.341    -947.339     276.798
  H      341.156    -947.368     276.837
  H      341.857    -944.654     281.098
  H      341.267    -949.693     276.147
  H      341.608    -944.572     279.376
  H      339.175    -949.027     274.018
  H      340.310    -951.298     273.978
  H      339.608    -951.609     275.586
  P      343.281    -948.727     274.634
  C      344.393    -950.567     273.162
  O      343.865    -950.205     274.432
  O      343.330    -948.522     276.226
  O      344.013    -947.644     273.900
  H      344.099    -947.932     276.440
  H      345.167    -951.320     273.315
  H      344.828    -949.694     272.650
  H      343.609    -950.994     272.544
  H      339.299    -955.461     273.726
  H      337.794    -955.042     272.943
  H      338.159    -954.409     274.530

 3  4  5  6  7  8  9  10  11  12  23  26  30  31 0
 6-311+G(2d,p)
 ****
 33  35  36  37  38 0
 6-311+G(2d,p)
 ****
 1  2  13  14  15  16  17  18  19  20  21  22  24  25 0
 3-21G
 ****
 27  28  29  32  34  39  40  41  42  43  44  45  46  47  48  49 0
 3-21G
 ****


