%nproc=1
%NoSave
%Mem=1900MB
#P OB98/GEN NMR

erre ene a

0 1
  C       27.652      87.071    -296.343
  O       27.227      86.348    -297.502
  P       26.721      87.202    -298.760
  C       24.268      86.405    -299.129
  O       25.138      87.414    -298.628
  C       22.940      86.431    -298.370
  O       22.236      87.665    -298.596
  C       21.980      85.338    -298.811
  O       22.344      84.096    -298.242
  C       20.642      85.873    -298.315
  O       20.357      85.435    -296.976
  C       20.839      87.405    -298.361
  N       20.007      88.052    -299.362
  C       18.745      88.472    -298.928
  O       18.391      88.272    -297.764
  N       17.914      89.087    -299.828
  C       18.297      89.241    -301.058
  N       17.427      89.852    -301.906
  C       19.607      88.784    -301.563
  C       20.404      88.201    -300.669
  O       26.855      86.174    -299.980
  O       27.508      88.449    -299.002
  H       19.449      85.747    -296.786
  H       27.080      86.650    -300.800
  H       19.878      88.927    -302.598
  H       21.386      87.833    -300.952
  H       20.601      87.851    -297.387
  H       19.815      85.525    -298.942
  H       21.968      85.269    -299.906
  H       23.150      86.335    -297.297
  H       16.537      90.149    -301.527
  H       24.736      85.423    -299.030
  H       17.618      90.016    -302.885
  H       24.115      86.572    -300.200
  P       22.941      82.975    -299.218
  C       20.620      81.877    -299.276
  O       21.679      82.422    -300.041
  O       23.229      81.766    -298.203
  O       24.149      83.335    -300.015
  H       23.689      81.044    -298.667
  H       19.756      81.736    -299.926
  H       20.342      82.555    -298.463
  H       20.918      80.908    -298.868
  H       27.961      86.381    -295.586
  H       26.841      87.664    -295.975
  H       28.472      87.709    -296.601

 3  4  5  6  7  8  9  10  11  12  13  21  23  27  28  29  30  32 0
 6-311+G(2d,p)
 ****
 34  35 0
 6-311+G(2d,p)
 ****
 1  2  14  15  16  17  18  19  20  22  24  25  26 0
 3-21G
 ****
 31  33  36  37  38  39  40  41  42  43  44  45  46 0
 3-21G
 ****


