%nproc=1
%NoSave
%Mem=1900MB
#P OB98/GEN NMR

erre ene a

0 1
  C      182.881    -141.617    -122.883
  O      183.218    -140.241    -122.873
  H      183.501    -142.125    -123.627
  H      181.828    -141.746    -123.152
  H      183.074    -142.060    -121.900
  P      182.367    -139.308    -121.879
  C      181.138    -138.200    -123.883
  O      181.019    -138.926    -122.666
  C      180.382    -136.879    -123.797
  O      178.956    -137.108    -123.744
  C      180.738    -136.029    -122.583
  O      181.907    -135.262    -122.823
  C      179.488    -135.167    -122.447
  O      179.512    -134.070    -123.387
  C      178.371    -136.163    -122.803
  N      174.219    -136.760    -119.993
  C      174.473    -135.886    -121.030
  N      173.485    -135.018    -121.351
  N      175.603    -135.851    -121.693
  C      176.520    -136.732    -121.224
  C      176.387    -137.646    -120.203
  C      175.115    -137.712    -119.520
  O      174.796    -138.521    -118.646
  N      177.540    -138.382    -120.041
  C      178.371    -137.885    -120.936
  N      177.801    -136.877    -121.675
  O      183.187    -137.931    -121.868
  O      182.187    -139.841    -120.497
  H      178.778    -133.463    -123.182
  H      183.162    -137.558    -120.966
  H      173.321    -136.765    -119.544
  H      179.391    -138.221    -121.098
  H      177.539    -135.673    -123.319
  H      179.411    -134.721    -121.455
  H      172.738    -134.799    -120.713
  H      180.848    -136.652    -121.682
  H      173.703    -134.330    -122.063
  H      180.579    -136.326    -124.725
  H      180.726    -138.806    -124.699
  H      182.200    -138.010    -124.080
  P      182.729    -134.712    -121.559
  C      181.717    -132.317    -121.645
  O      181.879    -133.518    -120.898
  O      183.966    -133.962    -122.240
  O      183.196    -135.769    -120.608
  H      184.776    -134.496    -122.136
  H      181.133    -131.621    -121.079
  H      181.219    -132.535    -122.567
  H      182.677    -131.892    -121.851

 6  7  8  9  10  11  12  13  14  15  26  29  33  34 0
 6-311+G(2d,p)
 ****
 36  38  39  40  41 0
 6-311+G(2d,p)
 ****
 1  2  3  4  5  16  17  18  19  20  21  22  23  24  25 0
 3-21G
 ****
 27  28  30  31  32  35  37  42  43  44  45  46  47 0
 3-21G
 ****
 48  49 0
 3-21G
 ****


