%nproc=1
%NoSave
%Mem=1900MB
#P OB98/GEN NMR

erre ene a

0 1
  C      421.129     406.301    -424.347
  O      421.068     406.504    -422.948
  P      421.813     407.795    -422.352
  C      420.254     409.859    -422.642
  O      421.280     409.039    -423.211
  C      420.876     411.066    -421.936
  O      421.790     410.615    -420.917
  C      421.678     411.974    -422.844
  O      420.831     412.796    -423.608
  C      422.532     412.729    -421.828
  O      421.829     413.881    -421.329
  C      422.740     411.680    -420.710
  N      424.107     411.176    -420.671
  C      424.991     411.884    -419.839
  O      424.601     412.877    -419.217
  N      426.300     411.464    -419.777
  C      426.686     410.443    -420.469
  N      427.993     410.078    -420.361
  C      425.796     409.691    -421.368
  C      424.528     410.103    -421.423
  O      423.318     407.605    -422.861
  O      421.725     407.934    -420.867
  H      421.869     414.547    -422.054
  H      423.944     408.059    -422.268
  H      426.166     408.843    -421.936
  H      423.804     409.612    -422.059
  H      422.513     412.122    -419.730
  H      423.465     413.099    -422.273
  H      422.334     411.376    -423.497
  H      420.066     411.625    -421.441
  H      428.583     410.618    -419.747
  H      419.682     409.273    -421.912
  H      428.387     409.287    -420.849
  H      419.582     410.183    -423.442
  P      421.489     413.687    -424.768
  C      422.024     411.526    -426.025
  O      422.542     412.716    -425.486
  O      422.451     414.660    -423.924
  O      420.567     414.447    -425.659
  H      422.839     415.333    -424.515
  H      422.807     411.039    -426.616
  H      421.177     411.739    -426.679
  H      421.722     410.843    -425.224
  H      420.594     405.410    -424.602
  H      422.151     406.202    -424.649
  H      420.689     407.138    -424.848

 3  4  5  6  7  8  9  10  11  12  13  21  23  27  28  29  30  32 0
 6-311+G(2d,p)
 ****
 34  35 0
 6-311+G(2d,p)
 ****
 1  2  14  15  16  17  18  19  20  22  24  25  26 0
 3-21G
 ****
 31  33  36  37  38  39  40  41  42  43  44  45  46 0
 3-21G
 ****


