%nproc=1
%NoSave
%Mem=1900MB
#P OB98/GEN NMR

erre ene a

0 1
  C      393.575     356.265     176.611
  O      393.984     354.909     176.493
  P      393.991     354.264     175.021
  C      392.518     352.458     173.865
  O      392.602     353.470     174.867
  C      391.776     351.229     174.384
  O      392.582     350.583     175.400
  C      390.401     351.530     174.990
  O      389.526     350.458     174.641
  C      390.658     351.498     176.479
  O      389.470     351.207     177.213
  C      391.759     350.426     176.573
  N      392.542     350.544     177.799
  C      392.125     349.776     178.894
  O      391.092     349.106     178.819
  N      392.854     349.827     180.055
  C      393.847     350.654     180.155
  N      394.541     350.663     181.319
  C      394.248     351.573     179.061
  C      393.569     351.447     177.922
  O      395.075     353.093     175.151
  O      394.320     355.220     173.926
  H      388.848     351.956     177.100
  H      395.543     352.958     174.309
  H      395.057     352.268     179.212
  H      393.802     352.062     177.060
  H      391.317     349.418     176.537
  H      391.043     352.468     176.820
  H      389.983     352.477     174.633
  H      391.676     350.512     173.552
  H      394.243     350.038     182.057
  H      393.530     352.157     173.584
  H      395.327     351.280     181.487
  H      392.022     352.866     172.982
  P      387.967     350.796     174.465
  C      385.908     350.149     175.857
  O      387.295     350.411     175.872
  O      387.482     349.576     173.536
  O      387.594     352.110     173.871
  H      386.544     349.698     173.297
  H      385.614     349.771     176.841
  H      385.664     349.400     175.101
  H      385.358     351.078     175.662
  H      393.618     356.562     177.638
  H      392.572     356.368     176.252
  H      394.227     356.886     176.032

 3  4  5  6  7  8  9  10  11  12  13  21  23  27  28  29  30  32 0
 6-311+G(2d,p)
 ****
 34  35 0
 6-311+G(2d,p)
 ****
 1  2  14  15  16  17  18  19  20  22  24  25  26 0
 3-21G
 ****
 31  33  36  37  38  39  40  41  42  43  44  45  46 0
 3-21G
 ****


