%nproc=1
%NoSave
%Mem=1900MB
#P OB98/GEN NMR

erre ene a

0 1
  C      203.303      32.394     126.635
  O      203.302      31.776     127.908
  H      203.321      31.615     125.869
  H      204.186      33.028     126.519
  H      202.394      32.992     126.510
  P      203.309      32.754     129.181
  C      201.717      31.434     130.718
  O      203.070      31.775     130.433
  C      201.600      30.837     132.125
  O      202.241      29.537     132.127
  C      202.272      31.690     133.201
  O      201.484      31.652     134.392
  C      203.595      30.984     133.446
  O      204.117      31.236     134.750
  C      203.220      29.526     133.183
  N      206.371      25.791     134.654
  C      205.233      26.274     135.189
  N      204.443      27.267     134.720
  C      204.911      27.734     133.552
  C      206.062      27.343     132.882
  C      206.815      26.323     133.488
  N      207.990      25.842     132.962
  N      206.231      28.092     131.731
  C      205.194      28.913     131.701
  N      204.380      28.742     132.786
  O      202.398      33.928     129.102
  O      204.869      33.100     129.310
  H      204.243      32.202     134.844
  H      205.423      32.307     129.199
  H      204.915      25.810     136.120
  H      204.997      29.648     130.925
  H      202.781      29.040     134.063
  H      204.340      31.330     132.714
  H      202.417      32.725     132.889
  H      200.540      30.672     132.348
  H      201.350      30.709     129.981
  H      208.464      25.095     133.450
  H      208.331      26.212     132.085
  H      201.114      32.344     130.642
  P      201.574      32.886     135.409
  C      200.276      34.522     133.881
  O      200.321      33.859     135.143
  O      202.902      33.561     135.501
  O      201.179      32.209     136.813
  H      201.725      32.611     137.517
  H      199.400      35.134     133.831
  H      200.248      33.795     133.097
  H      201.146      35.135     133.769

 6  7  8  9  10  11  12  13  14  15  25  28  32  33  34  35 0
 6-311+G(2d,p)
 ****
 36  39  40 0
 6-311+G(2d,p)
 ****
 1  2  3  4  5  16  17  18  19  20  21  22  23  24 0
 3-21G
 ****
 26  27  29  30  31  37  38  41  42  43  44  45  46  47 0
 3-21G
 ****
 48 0
 3-21G
 ****


