%nproc=1
%NoSave
%Mem=1900MB
#P OB98/GEN NMR

erre ene a

0 1
  C       84.094     318.693     -85.051
  O       83.420     319.802     -84.493
  H       83.871     317.807     -84.451
  H       85.175     318.863     -85.035
  H       83.760     318.519     -86.078
  P       83.584     321.204     -85.253
  C       85.513     321.875     -83.641
  O       85.093     321.686     -84.988
  C       86.108     323.271     -83.477
  O       87.351     323.352     -84.210
  C       85.233     324.392     -84.025
  O       84.186     324.734     -83.134
  C       86.258     325.503     -84.211
  O       86.499     326.211     -82.988
  C       87.520     324.728     -84.622
  N       91.118     325.327     -88.183
  C       91.183     325.241     -86.835
  N       90.175     325.062     -85.956
  C       88.999     324.959     -86.602
  C       88.776     325.035     -87.967
  C       89.904     325.224     -88.780
  N       89.832     325.352     -90.144
  N       87.425     324.932     -88.240
  C       86.850     324.786     -87.065
  N       87.759     324.794     -86.049
  O       82.705     322.202     -84.360
  O       83.156     321.207     -86.684
  H       86.825     325.555     -82.345
  H       81.809     322.276     -84.739
  H       92.180     325.332     -86.407
  H       85.780     324.684     -86.900
  H       88.418     325.106     -84.122
  H       85.923     326.233     -84.949
  H       84.830     324.114     -85.006
  H       86.328     323.432     -82.414
  H       86.273     321.127     -83.391
  H       84.650     321.742     -82.979
  H       90.680     325.507     -90.664
  H       88.923     325.385     -90.589
  P       82.772     325.170     -83.744
  C       83.282     327.712     -83.909
  O       83.002     326.507     -84.600
  O       81.956     325.673     -82.461
  O       82.049     324.085     -84.473
  H       81.342     324.979     -82.156
  H       83.409     328.506     -84.614
  H       84.179     327.595     -83.338
  H       82.469     327.944     -83.253

 6  7  8  9  10  11  12  13  14  15  25  28  32  33  34  35 0
 6-311+G(2d,p)
 ****
 36  37  40 0
 6-311+G(2d,p)
 ****
 1  2  3  4  5  16  17  18  19  20  21  22  23  24 0
 3-21G
 ****
 26  27  29  30  31  38  39 41  42  43  44  45  46  47  48 0
 3-21G
 ****


