%nproc=1
%NoSave
%Mem=1900MB
#P OB98/GEN NMR

erre ene a

0 1
  C       81.851    -191.329    -511.301
  O       80.436    -191.421    -511.425
  H       82.208    -190.534    -511.951
  H       82.312    -192.275    -511.612
  H       82.128    -191.097    -510.269
  P       79.700    -192.485    -510.470
  C       78.574    -190.607    -509.075
  O       79.437    -191.736    -509.073
  C       78.722    -189.802    -507.780
  O       80.146    -189.551    -507.546
  C       78.008    -188.435    -507.796
  O       77.520    -188.175    -506.482
  C       79.154    -187.466    -508.090
  O       78.843    -186.134    -507.671
  C       80.284    -188.139    -507.305
  N       83.728    -184.582    -506.384
  C       82.521    -184.845    -505.764
  N       82.170    -184.030    -504.737
  N       81.713    -185.811    -506.122
  C       82.207    -186.565    -507.136
  C       83.380    -186.413    -507.833
  C       84.244    -185.312    -507.454
  O       85.318    -185.030    -507.971
  N       83.492    -187.363    -508.821
  C       82.401    -188.085    -508.707
  N       81.585    -187.647    -507.690
  O       80.870    -193.527    -510.128
  O       78.509    -193.156    -511.074
  H       77.896    -185.984    -507.842
  H       80.848    -194.284    -510.759
  H       84.285    -183.806    -506.074
  H       82.154    -188.956    -509.333
  H       80.205    -187.969    -506.225
  H       79.377    -187.444    -509.168
  H       82.757    -183.296    -504.392
  H       77.187    -188.363    -508.522
  H       81.302    -184.234    -504.255
  H       78.372    -190.428    -506.955
  H       77.536    -190.962    -509.156
  H       78.808    -189.979    -509.943
  P       76.069    -188.745    -506.087
  C       76.957    -190.007    -503.992
  O       76.265    -190.079    -505.231
  O       75.509    -189.287    -507.486
  O       75.143    -187.720    -505.480
  H       74.542    -189.247    -507.499
  H       77.000    -190.981    -503.550
  H       76.441    -189.339    -503.334
  H       77.951    -189.647    -504.159

 6  7  8  9  10  11  12  13  14  15  26  29  33  34 0
 6-311+G(2d,p)
 ****
 36  38  39  40  41 0
 6-311+G(2d,p)
 ****
 1  2  3  4  5  16  17  18  19  20  21  22  23  24  25 0
 3-21G
 ****
 27  28  30  31  32  35  37  42  43  44  45  46  47 0
 3-21G
 ****
 48  49 0
 3-21G
 ****


