%nproc=1
%NoSave
%Mem=1900MB
#P OB98/GEN NMR

erre ene a

0 1
  C       33.666     152.472      67.732
  O       32.845     153.025      68.743
  H       33.847     153.237      66.971
  H       33.171     151.620      67.259
  H       34.627     152.159      68.149
  P       32.430     152.091      69.977
  C       33.734     153.608      71.611
  O       33.571     152.297      71.086
  C       35.218     153.930      71.764
  O       35.844     154.039      70.472
  C       35.494     155.243      72.495
  O       35.395     155.060      73.900
  C       36.913     155.525      72.024
  O       37.838     154.685      72.738
  C       36.838     155.102      70.546
  N       38.373     159.274      68.108
  C       39.045     158.482      69.024
  N       40.285     158.887      69.367
  N       38.534     157.407      69.565
  C       37.261     157.165      69.178
  C       36.486     157.882      68.295
  C       37.081     159.040      67.661
  O       36.527     159.759      66.830
  N       35.217     157.370      68.205
  C       35.237     156.320      68.999
  N       36.450     156.159      69.630
  O       32.151     150.653      69.657
  O       31.160     152.826      70.612
  H       38.718     154.846      72.351
  H       30.329     152.481      70.237
  H       38.813     160.101      67.741
  H       34.404     155.644      69.158
  H       37.788     154.689      70.185
  H       37.220     156.559      72.185
  H       40.601     159.836      69.206
  H       34.843     156.050      72.142
  H       40.772     158.351      70.072
  H       35.692     153.085      72.283
  H       33.233     153.640      72.583
  H       33.264     154.344      70.948
  P       34.450     156.003      74.795
  C       32.500     154.491      75.561
  O       32.973     155.416      74.590
  O       34.582     157.463      74.519
  O       34.784     155.593      76.299
  H       35.534     156.107      76.691
  H       31.508     154.181      75.305
  H       32.490     154.958      76.524
  H       33.145     153.638      75.585

 6  7  8  9  10  11  12  13  14  15  26  29  33  34 0
 6-311+G(2d,p)
 ****
 36  38  39  40  41 0
 6-311+G(2d,p)
 ****
 1  2  3  4  5  16  17  18  19  20  21  22  23  24  25 0
 3-21G
 ****
 27  28  30  31  32  35  37  42  43  44  45  46  47 0
 3-21G
 ****
 48  49 0
 3-21G
 ****


