%nproc=1
%NoSave
%Mem=1900MB
#P OB98/GEN NMR

erre ene a

0 1
  C       -8.325     -28.241      -3.243
  O       -8.378     -27.316      -2.171
  P       -9.274     -27.725      -0.900
  C       -7.815     -26.892       1.099
  O       -8.930     -26.667       0.251
  C       -7.565     -25.653       1.960
  O       -6.759     -24.698       1.243
  C       -8.831     -24.916       2.376
  O       -9.427     -25.544       3.496
  C       -8.288     -23.522       2.668
  O       -7.697     -23.465       3.981
  C       -7.220     -23.360       1.577
  N       -7.294     -18.968      -0.923
  C       -6.862     -19.255       0.358
  N       -6.331     -18.227       1.055
  N       -6.939     -20.439       0.903
  C       -7.503     -21.365       0.094
  C       -7.983     -21.202      -1.184
  C       -7.844     -19.900      -1.794
  O       -8.120     -19.619      -2.956
  N       -8.507     -22.368      -1.678
  C       -8.314     -23.241      -0.710
  N       -7.690     -22.689       0.379
  O       -8.595     -29.082      -0.402
  O      -10.737     -27.879      -1.177
  H       -7.133     -24.248       4.112
  H       -9.091     -29.857      -0.728
  H       -7.193     -18.041      -1.296
  H       -8.587     -24.283      -0.757
  H       -6.348     -22.799       1.934
  H       -9.072     -22.761       2.646
  H       -6.262     -17.283       0.709
  H       -9.538     -24.868       1.539
  H       -6.013     -18.416       1.998
  H       -6.998     -25.970       2.845
  H       -6.931     -27.089       0.486
  H       -8.013     -27.767       1.726
  P      -11.026     -25.668       3.512
  C      -11.025     -27.870       4.885
  O      -11.423     -26.515       4.810
  O      -11.329     -26.663       2.294
  O      -11.748     -24.373       3.346
  H      -12.159     -26.398       1.855
  H      -10.883     -28.135       5.935
  H      -10.092     -28.050       4.343
  H      -11.813     -28.499       4.464
  H       -7.700     -27.852      -4.020
  H       -9.312     -28.401      -3.625
  H       -7.923     -29.169      -2.894

 3  4  5  6  7  8  9  10  11  12  23  26  30  31 0
 6-311+G(2d,p)
 ****
 33  35  36  37  38 0
 6-311+G(2d,p)
 ****
 1  2  13  14  15  16  17  18  19  20  21  22  24  25 0
 3-21G
 ****
 27  28  29  32  34  39  40  41  42  43  44  45  46  47  48  49 0
 3-21G
 ****


