%nproc=1
%NoSave
%Mem=1900MB
#P OB98/GEN NMR

erre ene a

0 1
  C     -680.581    -534.758    -490.267
  O     -680.606    -533.409    -490.693
  H     -679.627    -534.951    -489.769
  H     -680.677    -535.431    -491.121
  H     -681.394    -534.951    -489.555
  P     -681.966    -532.804    -491.288
  C     -681.466    -530.482    -490.284
  O     -681.742    -531.228    -491.460
  C     -680.154    -529.699    -490.434
  O     -679.037    -530.629    -490.324
  C     -680.005    -528.966    -491.795
  O     -679.209    -527.798    -491.555
  C     -679.249    -530.001    -492.599
  O     -678.736    -529.499    -493.804
  C     -678.237    -530.469    -491.528
  N     -677.513    -531.693    -491.846
  C     -676.129    -531.690    -491.690
  O     -675.476    -530.708    -491.298
  N     -675.482    -532.858    -492.003
  C     -676.085    -534.007    -492.421
  O     -675.461    -535.044    -492.659
  C     -677.556    -533.955    -492.570
  C     -678.189    -532.823    -492.270
  O     -683.214    -533.195    -490.566
  O     -681.974    -533.335    -492.805
  H     -682.579    -534.090    -492.885
  H     -678.249    -528.671    -493.626
  H     -674.486    -532.860    -491.892
  H     -678.063    -534.851    -492.909
  H     -679.270    -532.756    -492.360
  H     -677.524    -529.666    -491.324
  H     -679.926    -530.828    -492.873
  H     -680.965    -528.667    -492.224
  H     -680.068    -528.994    -489.595
  H     -681.377    -531.181    -489.440
  H     -682.292    -529.787    -490.086
  P     -679.808    -526.329    -491.409
  C     -678.960    -526.554    -488.973
  O     -679.232    -525.670    -490.054
  O     -681.303    -526.260    -491.510
  O     -679.110    -525.470    -492.584
  H     -679.698    -524.723    -492.824
  H     -678.586    -525.995    -488.141
  H     -678.229    -527.274    -489.277
  H     -679.860    -527.057    -488.689

 6  7  8  9  10  11  12  13  14  15  16  27  31  32  33  34  35 0
 6-311+G(2d,p)
 ****
 36  37 0
 6-311+G(2d,p)
 ****
 1  2  3  4  5  17  18  19  20  21  22  23  24  25 0
 3-21G
 ****
 26  28  29  30  38  39  40  41  42  43  44  45 0
 3-21G
 ****


