%nproc=1
%NoSave
%Mem=1900MB
#P OB98/GEN NMR

erre ene a

0 1
  C      289.942    -436.271    -802.483
  O      289.903    -435.875    -803.854
  P      288.543    -436.050    -804.688
  C      287.547    -433.689    -805.051
  O      287.517    -434.890    -804.281
  C      286.140    -433.372    -805.573
  O      285.604    -434.459    -806.355
  C      285.122    -433.160    -804.463
  O      285.274    -431.983    -803.676
  C      283.807    -433.344    -805.185
  O      283.398    -432.154    -805.854
  C      284.174    -434.446    -806.213
  N      283.664    -435.767    -805.833
  C      282.858    -436.405    -806.773
  O      282.542    -435.903    -807.845
  N      282.396    -437.643    -806.410
  C      282.623    -438.274    -805.212
  O      282.160    -439.375    -804.938
  C      283.449    -437.536    -804.249
  C      283.932    -436.338    -804.595
  O      287.976    -437.428    -804.705
  O      288.986    -435.611    -806.166
  H      284.124    -431.882    -806.444
  H      288.561    -436.227    -806.799
  H      281.818    -438.128    -807.082
  H      283.651    -438.005    -803.303
  H      284.547    -435.784    -803.909
  H      283.754    -434.199    -807.200
  H      283.000    -433.618    -804.494
  H      285.225    -433.997    -803.757
  H      286.208    -432.496    -806.232
  H      288.245    -433.800    -805.886
  H      287.936    -432.874    -804.422
  P      285.355    -432.006    -802.069
  C      287.931    -432.065    -801.781
  O      286.709    -432.750    -801.650
  O      284.114    -432.357    -801.323
  O      285.717    -430.460    -801.758
  H      285.305    -430.229    -800.906
  H      288.751    -432.726    -801.467
  H      287.947    -431.175    -801.158
  H      288.097    -431.795    -802.833
  H      290.918    -436.085    -802.086
  H      289.718    -437.315    -802.407
  H      289.219    -435.710    -801.929

 3  4  5  6  7  8  9  10  11  12  13  23  28  29  30  31  32 0
 6-311+G(2d,p)
 ****
 33  34 0
 6-311+G(2d,p)
 ****
 1  2  14  15  16  17  18  19  20  21  22  24  25  26  27 0
 3-21G
 ****
 35  36  37  38  39  40  41  42  43  44  45 0
 3-21G
 ****


