%nproc=1
%NoSave
%Mem=1900MB
#P OB98/GEN NMR

erre ene a

0 1
  C      216.422     127.451     355.939
  O      216.563     128.752     355.342
  P      217.339     129.012     353.966
  C      216.704     130.021     351.659
  O      216.244     129.352     352.832
  C      215.526     130.520     350.823
  O      214.818     129.400     350.230
  C      214.443     131.267     351.596
  O      214.856     132.573     351.974
  C      213.288     131.236     350.601
  O      213.391     132.303     349.644
  C      213.497     129.877     349.897
  N      212.479     128.900     350.245
  C      211.758     128.334     349.192
  O      211.937     128.727     348.035
  N      210.841     127.346     349.472
  C      210.595     127.033     350.707
  N      209.683     126.037     350.927
  C      211.231     127.702     351.857
  C      212.158     128.612     351.556
  O      218.282     127.913     353.578
  O      218.122     130.391     354.169
  H      218.902     130.420     353.590
  H      214.165     132.105     349.085
  H      210.964     127.437     352.873
  H      212.687     129.143     352.347
  H      213.501     130.014     348.810
  H      212.313     131.340     351.097
  H      214.173     130.690     352.490
  H      215.922     131.149     350.014
  H      209.277     125.590     350.113
  H      217.289     129.312     351.063
  H      209.437     125.700     351.847
  H      217.358     130.851     351.953
  P      215.884     132.689     353.201
  C      218.467     132.844     353.438
  O      217.362     132.479     352.622
  O      215.610     131.355     354.040
  O      215.700     133.907     354.049
  H      215.661     131.550     354.997
  H      219.326     132.230     353.144
  H      218.255     132.684     354.495
  H      218.712     133.894     353.259
  H      215.866     127.535     356.850
  H      217.391     127.048     356.148
  H      215.904     126.803     355.263

 3  4  5  6  7  8  9  10  11  12  13  24  27  28  29  30  32 0
 6-311+G(2d,p)
 ****
 34  35 0
 6-311+G(2d,p)
 ****
 1  2  14  15  16  17  18  19  20  21  22  23  25  26 0
 3-21G
 ****
 31  33  36  37  38  39  40  41  42  43  44  45  46 0
 3-21G
 ****


