%nproc=1
%NoSave
%Mem=1900MB
#P OB98/GEN NMR

erre ene a

0 1
  C      219.853      67.495      71.323
  O      219.127      66.335      70.975
  H      219.253      68.374      71.072
  H      220.789      67.538      70.763
  H      220.060      67.504      72.398
  P      219.855      64.926      71.211
  C      219.454      64.353      68.708
  O      219.324      63.937      70.062
  C      218.904      63.265      67.783
  O      219.504      61.994      68.110
  C      217.398      63.044      67.913
  O      216.653      64.029      67.225
  C      217.260      61.663      67.298
  O      217.173      61.730      65.867
  C      218.562      60.965      67.747
  N      218.336      60.015      68.837
  C      217.800      58.789      68.465
  O      217.524      58.494      67.300
  N      217.549      57.910      69.486
  C      217.745      58.155      70.815
  O      217.430      57.354      71.691
  C      218.325      59.469      71.146
  C      218.578      60.331      70.164
  O      219.158      64.374      72.540
  O      221.340      64.996      71.339
  H      219.752      64.498      73.304
  H      217.349      60.827      65.539
  H      217.152      57.019      69.235
  H      218.495      59.689      72.192
  H      218.989      61.310      70.378
  H      219.007      60.412      66.908
  H      216.356      61.158      67.642
  H      217.115      62.995      68.973
  H      219.166      63.523      66.750
  H      220.509      64.517      68.475
  H      218.908      65.292      68.567
  P      215.390      64.689      67.964
  C      214.036      63.996      65.816
  O      214.285      64.959      66.830
  O      215.959      66.146      68.305
  O      214.904      63.911      69.141
  H      216.552      66.498      67.618
  H      213.271      64.358      65.161
  H      213.716      63.079      66.266
  H      214.933      63.826      65.258

 6  7  8  9  10  11  12  13  14  15  16  27  31  32  33  34  35 0
 6-311+G(2d,p)
 ****
 36  37 0
 6-311+G(2d,p)
 ****
 1  2  3  4  5  17  18  19  20  21  22  23  24  25 0
 3-21G
 ****
 26  28  29  30  38  39  40  41  42  43  44  45 0
 3-21G
 ****


