%nproc=1
%NoSave
%Mem=1900MB
#P OB98/GEN NMR

erre ene a

0 1
  C     -195.263     504.740     179.982
  O     -193.903     505.053     179.751
  H     -195.327     504.058     180.835
  H     -195.703     504.250     179.109
  H     -195.821     505.649     180.218
  P     -193.522     505.811     178.388
  C     -193.744     508.108     179.537
  O     -194.218     507.258     178.495
  C     -193.929     509.582     179.172
  O     -193.399     510.434     180.213
  C     -193.201     510.008     177.907
  O     -193.691     509.430     176.722
  C     -193.183     511.522     178.052
  O     -194.408     512.123     177.619
  C     -193.029     511.684     179.586
  N     -191.679     512.097     179.964
  C     -191.435     513.466     179.945
  O     -192.276     514.304     179.612
  N     -190.169     513.845     180.295
  C     -189.135     513.012     180.603
  O     -188.014     513.420     180.890
  C     -189.445     511.573     180.568
  C     -190.685     511.189     180.256
  O     -193.851     505.073     177.124
  O     -191.966     506.141     178.554
  H     -194.335     513.077     177.806
  H     -191.558     506.387     177.688
  H     -189.975     514.837     180.304
  H     -188.648     510.882     180.799
  H     -190.939     510.127     180.226
  H     -193.732     512.440     179.961
  H     -192.378     511.980     177.477
  H     -192.157     509.678     177.990
  H     -195.006     509.783     179.099
  H     -192.678     507.902     179.677
  H     -194.276     507.878     180.466
  P     -193.143     509.791     175.267
  C     -191.405     507.854     175.528
  O     -191.665     509.191     175.119
  O     -193.392     511.177     174.781
  O     -194.004     508.785     174.339
  H     -194.169     509.244     173.489
  H     -190.374     507.623     175.358
  H     -192.018     507.183     174.964
  H     -191.627     507.750     176.570

 6  7  8  9  10  11  12  13  14  15  16  26  31  32  33  34  35 0
 6-311+G(2d,p)
 ****
 36  37 0
 6-311+G(2d,p)
 ****
 1  2  3  4  5  17  18  19  20  21  22  23  24  25 0
 3-21G
 ****
 27  28  29  30  38  39  40  41  42  43  44  45 0
 3-21G
 ****


