%nproc=1
%NoSave
%Mem=1900MB
#P OB98/GEN NMR

erre ene a

0 1
  C      -43.578    -245.357     115.172
  O      -44.148    -245.714     113.901
  P      -45.019    -247.059     113.786
  C      -43.544    -249.208     113.673
  O      -44.217    -248.179     112.965
  C      -42.284    -249.669     112.923
  O      -42.615    -249.997     111.542
  C      -41.156    -248.629     112.879
  O      -39.917    -249.351     112.891
  C      -41.365    -247.977     111.524
  O      -40.213    -247.299     111.044
  C      -41.765    -249.199     110.693
  N      -42.442    -248.876     109.436
  C      -41.658    -248.701     108.300
  O      -40.430    -248.738     108.291
  N      -42.342    -248.442     107.139
  C      -43.694    -248.304     107.014
  O      -44.243    -248.041     105.951
  C      -44.468    -248.470     108.251
  C      -43.817    -248.744     109.384
  O      -46.160    -246.628     112.744
  O      -45.640    -247.531     115.061
  H      -39.593    -247.976     110.718
  H      -47.030    -246.923     113.069
  H      -41.792    -248.326     106.303
  H      -45.543    -248.373     108.193
  H      -44.370    -248.883     110.307
  H      -40.876    -249.803     110.479
  H      -42.177    -247.245     111.597
  H      -41.191    -247.921     113.711
  H      -41.931    -250.596     113.391
  H      -44.217    -250.061     113.793
  H      -43.275    -248.839     114.669
  P      -39.162    -249.550     114.298
  C      -36.758    -249.126     113.359
  O      -37.665    -250.015     113.970
  O      -39.863    -250.900     114.810
  O      -39.316    -248.409     115.249
  H      -39.928    -251.575     114.115
  H      -36.846    -248.117     113.772
  H      -36.941    -249.096     112.282
  H      -35.741    -249.487     113.532
  H      -43.033    -244.441     115.074
  H      -42.916    -246.133     115.497
  H      -44.360    -245.231     115.891

 3  4  5  6  7  8  9  10  11  12  13  23  28  29  30  31  32 0
 6-311+G(2d,p)
 ****
 33  34 0
 6-311+G(2d,p)
 ****
 1  2  14  15  16  17  18  19  20  21  22  24  25  26 0
 3-21G
 ****
 27  35  36  37  38  39  40  41  42  43  44  45 0
 3-21G
 ****


