%nproc=1
%NoSave
%Mem=1900MB
#P OB98/GEN NMR

erre ene a

0 1
  C       -9.239     -10.914      20.164
  O       -7.832     -10.884      20.228
  H       -9.632     -10.948      21.184
  H       -9.579     -11.808      19.637
  H       -9.623     -10.018      19.671
  P       -6.983     -10.876      18.865
  C       -5.315     -12.601      17.954
  O       -6.554     -12.409      18.624
  C       -4.509     -13.728      18.600
  O       -4.148     -13.350      19.957
  C       -5.266     -15.062      18.678
  O       -4.420     -16.124      18.230
  C       -5.547     -15.228      20.163
  O       -5.734     -16.586      20.548
  C       -4.327     -14.526      20.767
  N       -4.519     -14.206      22.176
  C       -3.851     -15.026      23.091
  O       -3.142     -15.951      22.692
  N       -4.042     -14.814      24.431
  C       -4.867     -13.895      24.824
  N       -5.034     -13.756      26.166
  C       -5.615     -13.026      23.893
  C       -5.392     -13.231      22.595
  O       -5.861      -9.894      18.836
  O       -8.063     -10.628      17.711
  H       -5.852     -16.620      21.522
  H       -7.605     -10.264      16.918
  H       -6.295     -12.278      24.272
  H       -5.897     -12.643      21.836
  H       -3.427     -15.147      20.669
  H       -6.460     -14.675      20.422
  H       -6.185     -15.069      18.094
  H       -3.565     -13.838      18.052
  H       -4.507     -14.378      26.769
  H       -4.752     -11.661      17.985
  H       -5.666     -13.094      26.589
  H       -5.522     -12.862      16.912
  P       -4.419     -16.409      16.650
  C       -6.231     -16.571      14.800
  O       -5.938     -16.640      16.188
  O       -3.754     -17.861      16.539
  O       -3.658     -15.395      15.863
  H       -2.867     -17.788      16.140
  H       -7.276     -16.744      14.647
  H       -5.666     -17.315      14.279
  H       -5.972     -15.602      14.429

 6  7  8  9  10  11  12  13  14  15  16  26  30  31  32  33  35 0
 6-311+G(2d,p)
 ****
 37  38 0
 6-311+G(2d,p)
 ****
 1  2  3  4  5  17  18  19  20  21  22  23  24  25 0
 3-21G
 ****
 27  28  29  34  36  39  40  41  42  43  44  45  46 0
 3-21G
 ****


