%nproc=1
%NoSave
%Mem=1900MB
#P OB98/GEN NMR

erre ene a

0 1
  C     -124.982    -241.320    -242.498
  O     -126.112    -240.901    -243.234
  P     -126.487    -239.349    -243.372
  C     -127.228    -237.429    -241.844
  O     -126.978    -238.828    -241.940
  C     -126.968    -236.912    -240.429
  O     -125.608    -237.238    -240.039
  C     -127.155    -235.396    -240.268
  O     -127.748    -235.174    -238.987
  C     -125.730    -234.874    -240.295
  O     -125.612    -233.599    -239.681
  C     -124.994    -236.016    -239.583
  N     -123.562    -236.008    -239.854
  C     -122.782    -235.142    -239.086
  O     -123.317    -234.337    -238.317
  N     -121.415    -235.203    -239.219
  C     -120.894    -235.919    -240.167
  N     -119.535    -236.003    -240.221
  C     -121.710    -236.652    -241.157
  C     -123.019    -236.688    -240.920
  O     -127.403    -239.017    -244.502
  O     -125.068    -238.621    -243.553
  H     -125.098    -238.063    -244.353
  H     -125.591    -233.717    -238.709
  H     -121.239    -237.129    -242.005
  H     -123.698    -237.222    -241.574
  H     -125.148    -235.956    -238.498
  H     -125.388    -234.787    -241.336
  H     -127.794    -234.965    -241.045
  H     -127.640    -237.448    -239.741
  H     -119.012    -235.521    -239.500
  H     -128.274    -237.254    -242.099
  H     -119.063    -236.765    -240.701
  H     -126.607    -236.891    -242.569
  P     -128.958    -234.120    -238.880
  C     -129.084    -231.530    -238.740
  O     -128.372    -232.662    -239.194
  O     -129.186    -234.055    -237.286
  O     -130.235    -234.499    -239.557
  H     -130.109    -233.779    -237.109
  H     -128.580    -230.630    -239.103
  H     -129.107    -231.507    -237.646
  H     -130.108    -231.539    -239.132
  H     -124.911    -242.387    -242.530
  H     -125.079    -240.999    -241.482
  H     -124.099    -240.891    -242.924

 3  4  5  6  7  8  9  10  11  12  13  24  27  28  29  30  32 0
 6-311+G(2d,p)
 ****
 34  35 0
 6-311+G(2d,p)
 ****
 1  2  14  15  16  17  18  19  20  21  22  23  25  26 0
 3-21G
 ****
 31  33  36  37  38  39  40  41  42  43  44  45  46 0
 3-21G
 ****


