%nproc=1
%NoSave
%Mem=1900MB
#P OB98/GEN NMR

erre ene a

0 1
  C     -332.169    -128.479     132.967
  O     -333.587    -128.381     133.166
  P     -334.380    -126.986     133.211
  C     -334.830    -126.798     135.754
  O     -334.103    -126.301     134.638
  C     -334.071    -126.543     137.060
  O     -333.918    -125.121     137.281
  C     -334.753    -127.044     138.319
  O     -334.694    -128.454     138.445
  C     -333.986    -126.284     139.399
  O     -332.770    -126.960     139.750
  C     -333.661    -124.951     138.693
  N     -334.413    -123.828     139.231
  C     -334.137    -123.463     140.553
  O     -333.354    -124.130     141.231
  N     -334.770    -122.362     141.074
  C     -335.673    -121.746     140.377
  N     -336.253    -120.652     140.938
  C     -336.092    -122.182     139.032
  C     -335.426    -123.218     138.524
  O     -335.832    -127.102     132.873
  O     -333.620    -126.033     132.171
  H     -334.238    -125.360     131.832
  H     -332.290    -127.127     138.914
  H     -336.881    -121.666     138.501
  H     -335.659    -123.595     137.533
  H     -332.591    -124.734     138.771
  H     -334.570    -126.171     140.318
  H     -335.803    -126.715     138.318
  H     -333.069    -126.989     136.960
  H     -335.936    -120.372     141.860
  H     -334.962    -127.880     135.627
  H     -336.949    -120.087     140.472
  H     -335.818    -126.330     135.777
  P     -335.987    -129.281     137.980
  C     -337.193    -128.646     140.191
  O     -337.248    -128.701     138.775
  O     -335.758    -130.731     138.626
  O     -336.167    -129.369     136.500
  H     -336.055    -131.416     138.002
  H     -337.842    -127.834     140.536
  H     -336.174    -128.467     140.548
  H     -337.560    -129.590     140.603
  H     -331.878    -129.509     132.976
  H     -331.662    -127.958     133.752
  H     -331.910    -128.043     132.025

 3  4  5  6  7  8  9  10  11  12  13  24  27  28  29  30  32 0
 6-311+G(2d,p)
 ****
 34  35 0
 6-311+G(2d,p)
 ****
 1  2  14  15  16  17  18  19  20  21  22  23  25  26 0
 3-21G
 ****
 31  33  36  37  38  39  40  41  42  43  44  45  46 0
 3-21G
 ****


