%nproc=1
%NoSave
%Mem=1900MB
#P OB98/GEN NMR

erre ene a

0 1
  C       53.007      26.539      14.933
  O       52.822      25.259      15.503
  H       52.673      26.509      13.893
  H       54.064      26.818      14.953
  H       52.414      27.285      15.469
  P       53.277      25.026      17.021
  C       52.328      25.761      19.307
  O       52.386      26.020      17.911
  C       52.324      27.071      20.090
  O       53.531      27.814      19.833
  C       51.164      28.003      19.747
  O       49.989      27.614      20.435
  C       51.718      29.329      20.241
  O       51.620      29.388      21.678
  C       53.196      29.229      19.821
  N       55.296      33.072      17.258
  C       55.058      32.936      18.612
  N       55.400      33.986      19.389
  N       54.522      31.874      19.153
  C       54.166      30.934      18.248
  C       54.334      30.960      16.882
  C       54.990      32.114      16.303
  O       55.242      32.263      15.111
  N       53.764      29.866      16.283
  C       53.299      29.153      17.291
  N       53.510      29.762      18.506
  O       54.748      25.124      17.289
  O       52.693      23.584      17.391
  H       50.672      29.437      21.898
  H       53.348      22.883      17.216
  H       55.705      33.918      16.898
  H       52.808      28.192      17.199
  H       53.861      29.731      20.532
  H       51.178      30.189      19.845
  H       55.675      34.882      19.017
  H       51.006      28.066      18.665
  H       55.179      33.927      20.375
  H       52.322      26.822      21.159
  H       53.207      25.163      19.568
  H       51.430      25.185      19.552
  P       48.532      28.079      19.941
  C       47.229      27.546      17.771
  O       48.495      27.758      18.370
  O       48.167      29.477      20.299
  O       47.544      26.972      20.529
  H       47.264      27.161      21.460
  H       47.357      27.344      16.728
  H       46.626      28.421      17.893
  H       46.748      26.713      18.239

 6  7  8  9  10  11  12  13  14  15  26  29  33  34 0
 6-311+G(2d,p)
 ****
 36  38  39  40  41 0
 6-311+G(2d,p)
 ****
 1  2  3  4  5  16  17  18  19  20  21  22  23  24  25 0
 3-21G
 ****
 27  28  30  31  32  35  37  42  43  44  45  46  47 0
 3-21G
 ****
 48  49 0
 3-21G
 ****


