%nproc=1
%NoSave
%Mem=1900MB
#P OB98/GEN NMR

erre ene a

0 1
  C       40.175     641.685     205.842
  O       40.499     642.797     206.651
  H       40.146     642.007     204.798
  H       39.192     641.297     206.117
  H       40.929     640.901     205.950
  P       40.682     642.522     208.222
  C       39.565     644.738     208.977
  O       40.755     643.962     208.931
  C       39.877     646.180     209.363
  O       40.714     646.180     210.555
  C       40.622     646.979     208.278
  O       40.165     648.335     208.334
  C       42.062     646.945     208.765
  O       42.850     647.997     208.217
  C       41.837     647.037     210.275
  N       46.434     648.520     211.685
  C       45.460     649.180     210.963
  N       45.751     650.436     210.553
  N       44.296     648.662     210.671
  C       44.128     647.416     211.174
  C       45.010     646.651     211.895
  C       46.307     647.229     212.190
  O       47.217     646.685     212.807
  N       44.475     645.423     212.197
  C       43.267     645.450     211.657
  N       43.013     646.636     211.028
  O       42.186     641.980     208.309
  O       39.708     641.562     208.822
  H       42.754     647.969     207.242
  H       42.198     641.007     208.270
  H       47.318     648.962     211.869
  H       42.551     644.641     211.694
  H       41.587     648.054     210.597
  H       42.531     645.989     208.496
  H       46.609     650.916     210.782
  H       40.503     646.586     207.265
  H       45.035     650.953     210.061
  H       38.937     646.678     209.633
  H       38.888     644.304     209.723
  H       39.079     644.708     207.997
  P       39.521     648.966     207.008
  C       40.364     651.428     206.978
  O       39.299     650.535     207.261
  O       38.029     648.388     207.029
  O       40.237     648.607     205.746
  H       37.686     648.324     206.117
  H       40.058     652.429     207.198
  H       40.626     651.355     205.943
  H       41.212     651.174     207.579

 6  7  8  9  10  11  12  13  14  15  26  29  33  34 0
 6-311+G(2d,p)
 ****
 36  38  39  40  41 0
 6-311+G(2d,p)
 ****
 1  2  3  4  5  16  17  18  19  20  21  22  23  24  25 0
 3-21G
 ****
 27  28  30  31  32  35  37  42  43  44  45  46  47 0
 3-21G
 ****
 48  49 0
 3-21G
 ****


