%nproc=1
%NoSave
%Mem=1900MB
#P OB98/GEN NMR

erre ene a

0 1
  C     -899.255     194.103    -894.620
  O     -898.255     193.888    -895.640
  P     -897.465     195.192    -896.140
  C     -894.945     194.872    -895.460
  O     -896.225     195.447    -895.120
  C     -894.755     193.580    -894.690
  O     -895.715     192.538    -895.100
  C     -893.375     192.941    -894.920
  O     -892.395     193.650    -894.180
  C     -893.645     191.523    -894.400
  O     -893.605     191.477    -892.970
  C     -895.065     191.273    -894.920
  N     -895.375     186.566    -896.930
  C     -895.335     187.006    -895.670
  N     -895.245     188.257    -895.210
  C     -895.225     189.143    -896.230
  C     -895.245     188.861    -897.600
  C     -895.325     187.488    -897.950
  N     -895.335     187.064    -899.240
  N     -895.195     190.011    -898.350
  C     -895.095     190.992    -897.420
  N     -895.125     190.490    -896.160
  O     -898.475     196.401    -895.800
  O     -897.115     195.144    -897.590
  H     -894.245     192.138    -892.640
  H     -898.845     196.750    -896.640
  H     -895.395     186.215    -894.910
  H     -895.035     192.031    -897.680
  H     -895.675     190.709    -894.180
  H     -892.905     190.792    -894.790
  H     -893.135     192.935    -895.970
  H     -894.925     193.773    -893.620
  H     -894.145     195.567    -895.230
  H     -895.315     186.065    -899.410
  H     -895.225     187.722    -900.000
  H     -894.935     194.688    -896.540
  P     -891.575     194.793    -894.940
  C     -891.945     197.089    -893.840
  O     -892.455     196.139    -894.750
  O     -891.835     194.396    -896.500
  O     -890.135     194.908    -894.570
  H     -892.805     194.220    -896.650
  H     -892.635     197.938    -893.830
  H     -890.945     197.424    -894.190
  H     -891.875     196.648    -892.860
  H     -899.713     193.170    -894.367
  H     -900.000     194.778    -894.987
  H     -898.793     194.521    -893.750

 3  4  5  6  7  8  9  10  11  12  22  25  29  30  31  32 0
 6-311+G(2d,p)
 ****
 33  36  37 0
 6-311+G(2d,p)
 ****
 1  2  13  14  15  16  17  18  19  20  21  23  24  26 0
 3-21G
 ****
 27  28  34  35  38  39  40  41  42  43  44  45  46  47  48 0
 3-21G
 ****


