%nproc=1
%NoSave
%Mem=1900MB
#P OB98/GEN NMR

erre ene a

0 1
  C     -354.600     156.890    -303.119
  O     -355.624     155.968    -303.496
  P     -356.273     155.092    -302.315
  C     -356.542     152.762    -303.439
  O     -357.181     153.951    -302.992
  C     -357.554     151.610    -303.479
  O     -358.081     151.313    -302.167
  C     -358.775     151.904    -304.346
  O     -358.453     151.805    -305.721
  C     -359.739     150.839    -303.845
  O     -359.439     149.560    -304.439
  C     -359.418     150.791    -302.342
  N     -363.329     150.517    -299.050
  C     -362.614     149.566    -299.680
  N     -361.587     149.718    -300.552
  C     -361.307     151.021    -300.723
  C     -361.947     152.109    -300.147
  C     -363.006     151.812    -299.268
  N     -363.743     152.788    -298.633
  N     -361.381     153.290    -300.571
  C     -360.434     152.928    -301.416
  N     -360.346     151.568    -301.530
  O     -357.334     156.089    -301.657
  O     -355.275     154.601    -301.318
  H     -359.503     149.672    -305.410
  H     -357.022     156.376    -300.780
  H     -362.903     148.537    -299.475
  H     -359.791     153.612    -301.959
  H     -359.426     149.769    -301.948
  H     -360.786     151.065    -304.073
  H     -359.166     152.902    -304.126
  H     -357.033     150.716    -303.853
  H     -355.715     152.497    -302.777
  H     -364.539     152.503    -298.080
  H     -363.576     153.760    -298.860
  H     -356.115     152.943    -304.433
  P     -359.004     152.959    -306.698
  C     -359.960     151.320    -308.441
  O     -358.953     152.272    -308.156
  O     -357.778     153.969    -306.738
  O     -360.328     153.535    -306.308
  H     -356.925     153.503    -306.862
  H     -359.822     150.963    -309.466
  H     -360.952     151.773    -308.348
  H     -359.871     150.473    -307.758
  H     -354.251     157.409    -303.987
  H     -353.788     156.357    -302.671
  H     -354.995     157.594    -302.417

 3  4  5  6  7  8  9  10  11  12  22  25  29  30  31  32 0
 6-311+G(2d,p)
 ****
 33  36  37 0
 6-311+G(2d,p)
 ****
 1  2  13  14  15  16  17  18  19  20  21  23  24  26 0
 3-21G
 ****
 27  28  34  35  38  39  40  41  42  43  44  45  46  47  48 0
 3-21G
 ****


