%nproc=1
%NoSave
%Mem=1900MB
#P OB98/GEN NMR

erre ene a

0 1
  C     -118.764    -374.102     -19.764
  O     -119.337    -373.153     -18.892
  H     -117.860    -373.671     -20.202
  H     -119.465    -374.338     -20.569
  H     -118.492    -375.016     -19.232
  P     -120.481    -373.630     -17.878
  C     -119.766    -372.555     -15.643
  O     -119.808    -373.739     -16.427
  C     -118.324    -372.218     -15.245
  O     -117.580    -371.858     -16.435
  C     -118.270    -371.013     -14.302
  O     -117.133    -371.052     -13.443
  C     -118.123    -369.843     -15.261
  O     -117.548    -368.686     -14.652
  C     -117.256    -370.459     -16.357
  N     -115.077    -368.918     -20.700
  C     -114.483    -369.334     -19.525
  N     -113.130    -369.345     -19.505
  N     -115.154    -369.688     -18.459
  C     -116.494    -369.559     -18.597
  C     -117.199    -369.135     -19.701
  C     -116.446    -368.781     -20.886
  O     -116.921    -368.384     -21.944
  N     -118.549    -369.127     -19.461
  C     -118.664    -369.540     -18.215
  N     -117.446    -369.838     -17.655
  O     -120.713    -375.167     -18.267
  O     -121.760    -372.851     -17.932
  H     -118.095    -368.463     -13.878
  H     -121.594    -375.462     -17.975
  H     -114.516    -368.687     -21.499
  H     -119.598    -369.655     -17.680
  H     -116.193    -370.374     -16.103
  H     -119.119    -369.561     -15.613
  H     -112.585    -368.899     -20.228
  H     -119.168    -370.910     -13.696
  H     -112.689    -369.343     -18.582
  H     -117.836    -373.102     -14.820
  H     -120.377    -372.738     -14.757
  H     -120.221    -371.725     -16.184
  P     -117.371    -371.197     -11.865
  C     -116.208    -373.454     -11.122
  O     -117.377    -372.739     -11.457
  O     -118.889    -370.742     -11.665
  O     -116.429    -370.389     -11.025
  H     -118.933    -369.927     -11.130
  H     -116.464    -374.466     -10.886
  H     -115.741    -372.997     -10.275
  H     -115.532    -373.442     -11.952

 6  7  8  9  10  11  12  13  14  15  26  29  33  34 0
 6-311+G(2d,p)
 ****
 36  38  39  40  41 0
 6-311+G(2d,p)
 ****
 1  2  3  4  5  16  17  18  19  20  21  22  23  24  25 0
 3-21G
 ****
 27  28  30  31  32  35  37  42  43  44  45  46  47 0
 3-21G
 ****
 48  49 0
 3-21G
 ****


