%nproc=1
%NoSave
%Mem=1900MB
#P OB98/GEN NMR

erre ene a

0 1
  C      157.791      39.509      10.246
  O      156.788      40.032       9.396
  P      155.543      40.832      10.008
  C      153.523      40.329      11.519
  O      154.572      39.777      10.729
  C      152.449      39.276      11.793
  O      151.784      38.890      10.565
  C      152.983      37.980      12.375
  O      153.366      38.122      13.733
  C      151.807      37.039      12.132
  O      150.798      37.213      13.140
  C      151.291      37.541      10.766
  N      151.678      36.665       9.668
  C      150.949      35.478       9.540
  O      150.088      35.180      10.374
  N      151.217      34.653       8.473
  C      152.208      34.929       7.679
  N      152.389      34.109       6.605
  C      153.103      36.086       7.880
  C      152.769      36.918       8.867
  O      154.862      41.767       9.065
  O      156.170      41.634      11.247
  H      155.900      42.573      11.186
  H      151.250      37.102      14.002
  H      153.958      36.229       7.232
  H      153.357      37.806       9.072
  H      150.195      37.626      10.781
  H      152.104      35.985      12.145
  H      153.847      37.639      11.787
  H      151.701      39.722      12.463
  H      151.743      33.333       6.494
  H      153.083      41.173      10.976
  H      152.898      34.403       5.777
  H      153.940      40.705      12.461
  P      154.736      37.417      14.177
  C      155.398      34.976      14.726
  O      154.372      35.947      14.700
  O      155.136      38.209      15.517
  O      155.830      37.482      13.161
  H      156.105      38.306      15.562
  H      155.101      34.171      15.405
  H      156.346      35.400      15.073
  H      155.531      34.556      13.723
  H      158.534      39.012       9.658
  H      157.352      38.812      10.929
  H      158.246      40.307      10.794

 3  4  5  6  7  8  9  10  11  12  13  24  27  28  29  30  32 0
 6-311+G(2d,p)
 ****
 34  35 0
 6-311+G(2d,p)
 ****
 1  2  14  15  16  17  18  19  20  21  22  23  25  26 0
 3-21G
 ****
 31  33  36  37  38  39  40  41  42  43  44  45  46 0
 3-21G
 ****


