%nproc=1
%NoSave
%Mem=1900MB
#P OB98/GEN NMR

erre ene a

0 1
  C      753.644     147.797     655.570
  O      754.728     148.127     654.718
  H      753.980     147.043     656.283
  H      752.815     147.392     654.984
  H      753.311     148.683     656.117
  P      754.428     149.212     653.572
  C      753.112     147.597     652.030
  O      754.278     148.385     652.202
  C      753.062     147.021     650.619
  O      752.929     148.070     649.639
  C      754.285     146.199     650.230
  O      754.193     144.869     650.718
  C      754.222     146.273     648.708
  O      753.277     145.312     648.170
  C      753.725     147.707     648.476
  N      757.804     148.844     645.708
  C      756.906     147.801     645.585
  N      757.160     146.896     644.612
  N      755.850     147.650     646.355
  C      755.742     148.606     647.303
  C      756.556     149.704     647.515
  C      757.707     149.877     646.635
  O      758.500     150.809     646.649
  N      756.107     150.461     648.560
  C      755.049     149.821     649.004
  N      754.797     148.677     648.284
  O      755.838     149.968     653.392
  O      753.331     150.176     653.869
  H      753.587     144.415     648.376
  H      755.674     150.887     653.124
  H      758.579     148.917     645.073
  H      754.446     150.136     649.843
  H      753.075     147.788     647.600
  H      755.187     146.052     648.247
  H      758.090     146.769     644.238
  H      755.214     146.691     650.578
  H      756.517     146.115     644.541
  H      752.150     146.404     650.551
  H      752.230     148.224     652.193
  H      753.113     146.784     652.771
  P      755.290     144.391     651.795
  C      757.240     144.220     650.061
  O      756.374     143.534     650.975
  O      754.520     143.290     652.653
  O      755.832     145.480     652.652
  H      754.980     143.128     653.485
  H      757.899     143.516     649.597
  H      757.815     144.949     650.593
  H      756.653     144.707     649.311

 6  7  8  9  10  11  12  13  14  15  26  29  33  34 0
 6-311+G(2d,p)
 ****
 36  38  39  40  41 0
 6-311+G(2d,p)
 ****
 1  2  3  4  5  16  17  18  19  20  21  22  23  24  25 0
 3-21G
 ****
 27  28  30  31  32  35  37  42  43  44  45  46  47 0
 3-21G
 ****
 48  49 0
 3-21G
 ****


