%nproc=1
%NoSave
%Mem=1900MB
#P OB98/GEN NMR

erre ene a

0 1
  C       52.740      70.196    -682.262
  O       53.478      69.327    -683.105
  P       53.677      69.753    -684.638
  C       51.461      68.764    -685.534
  O       52.881      68.679    -685.521
  C       50.830      67.390    -685.691
  O       51.088      66.902    -687.043
  C       51.367      66.329    -684.724
  O       50.269      65.544    -684.223
  C       52.206      65.416    -685.604
  O       52.315      64.097    -685.070
  C       51.428      65.514    -686.918
  N       53.375      61.442    -689.181
  C       52.491      61.514    -688.131
  N       52.127      60.343    -687.563
  N       52.015      62.643    -687.663
  C       52.446      63.734    -688.349
  C       53.315      63.780    -689.417
  C       53.892      62.536    -689.882
  O       54.740      62.402    -690.751
  N       53.504      65.067    -689.851
  C       52.749      65.808    -689.044
  N       52.132      65.044    -688.087
  O       55.209      69.417    -684.907
  O       53.375      71.195    -684.940
  H       51.413      63.805    -684.848
  H       55.683      70.210    -685.228
  H       53.723      60.551    -689.491
  H       52.648      66.886    -689.103
  H       50.486      64.944    -686.838
  H       53.211      65.837    -685.702
  H       52.427      59.441    -687.896
  H       51.945      66.727    -683.881
  H       51.460      60.385    -686.798
  H       49.739      67.488    -685.604
  H       51.143      69.403    -686.362
  H       51.123      69.218    -684.589
  P       50.035      65.610    -682.624
  C       50.330      63.026    -682.368
  O       49.494      64.163    -682.205
  O       48.746      66.558    -682.484
  O       51.210      66.123    -681.858
  H       48.737      66.985    -681.602
  H       51.363      63.321    -682.623
  H       49.931      62.399    -683.160
  H       50.343      62.467    -681.430
  H       52.692      69.782    -681.277
  H       51.749      70.312    -682.649
  H       53.222      71.151    -682.224

 3  4  5  6  7  8  9  10  11  12  23  26  30  31  33  0
 6-311+G(2d,p)
 ****
 35  36  37  38 0
 6-311+G(2d,p)
 ****
 1  2  13  14  15  16  17  18  19  20  21  22  24  25  27  28  29 0
 3-21G
 ****
 32  34  39  40  41  42  43  44  45  46  47  48  49 0
 3-21G
 ****


