%nproc=1
%NoSave
%Mem=1900MB
#P OB98/GEN NMR

erre ene a

0 1
  C      -72.305      39.831     332.891
  O      -73.281      38.982     332.313
  P      -74.694      38.871     333.079
  C      -74.936      36.535     334.233
  O      -74.452      37.870     334.308
  C      -74.154      35.767     333.164
  O      -72.739      35.870     333.410
  C      -74.469      34.277     333.112
  O      -75.657      34.046     332.373
  C      -73.210      33.725     332.448
  O      -73.266      33.892     331.015
  C      -72.114      34.600     333.064
  N      -67.693      33.310     335.151
  C      -67.981      33.721     333.862
  N      -66.926      33.847     333.025
  N      -69.184      33.988     333.436
  C      -70.141      33.805     334.382
  C      -69.985      33.387     335.686
  C      -68.638      33.150     336.158
  O      -68.321      32.880     337.315
  N      -71.187      33.299     336.336
  C      -72.067      33.690     335.434
  N      -71.483      34.029     334.240
  O      -75.591      38.029     332.058
  O      -75.323      40.176     333.458
  H      -73.210      34.840     330.799
  H      -76.170      38.619     331.536
  H      -66.739      33.138     335.431
  H      -73.131      33.767     335.604
  H      -71.314      34.821     332.351
  H      -73.087      32.651     332.630
  H      -65.973      33.639     333.276
  H      -74.562      33.870     334.125
  H      -67.120      34.142     332.069
  H      -74.358      36.238     332.192
  H      -75.999      36.554     333.960
  H      -74.833      36.061     335.210
  P      -76.444      32.674     332.646
  C      -76.604      30.780     330.873
  O      -75.775      31.552     331.718
  O      -77.872      32.933     331.969
  O      -76.581      32.315     334.089
  H      -78.570      32.496     332.498
  H      -76.032      30.484     329.991
  H      -77.487      31.340     330.549
  H      -76.927      29.882     331.406
  H      -71.419      39.817     332.291
  H      -72.073      39.488     333.877
  H      -72.686      40.830     332.941

 3  4  5  6  7  8  9  10  11  12  23  26  30  31 0
 6-311+G(2d,p)
 ****
 33  35  36  37  38 0
 6-311+G(2d,p)
 ****
 1  2  13  14  15  16  17  18  19  20  21  22  24  25 0
 3-21G
 ****
 27  28  29  32  34  39  40  41  42  43  44  45  46  47  48  49 0
 3-21G
 ****


