%nproc=1
%NoSave
%Mem=1900MB
#P OB98/GEN NMR

erre ene a

0 1
  C      631.513    -333.170     167.487
  O      632.098    -333.065     166.207
  H      632.007    -333.978     168.031
  H      630.450    -333.416     167.387
  H      631.625    -332.243     168.055
  P      631.765    -331.781     165.306
  C      631.296    -332.796     162.981
  O      632.243    -332.137     163.813
  C      631.966    -333.920     162.177
  O      632.323    -335.002     163.086
  C      631.074    -334.513     161.073
  O      631.937    -334.949     160.012
  C      630.471    -335.711     161.787
  O      629.927    -336.641     160.867
  C      631.672    -336.192     162.606
  N      631.280    -337.084     163.701
  C      631.424    -338.450     163.471
  O      631.826    -338.919     162.402
  N      631.054    -339.272     164.497
  C      630.501    -338.875     165.683
  O      630.154    -339.660     166.559
  C      630.330    -337.420     165.851
  C      630.728    -336.603     164.868
  O      632.271    -330.477     165.826
  O      630.169    -331.794     165.172
  H      629.609    -337.438     161.345
  H      629.830    -330.881     165.083
  H      631.161    -340.265     164.351
  H      629.880    -337.071     166.771
  H      630.615    -335.531     164.967
  H      632.388    -336.738     161.968
  H      629.656    -335.400     162.454
  H      630.322    -333.817     160.697
  H      632.905    -333.538     161.753
  H      630.873    -332.053     162.296
  H      630.491    -333.216     163.592
  P      631.705    -334.495     158.491
  C      632.931    -336.685     157.863
  O      632.720    -335.306     157.543
  O      631.723    -333.014     158.280
  O      630.275    -335.101     158.096
  H      629.854    -334.543     157.411
  H      633.621    -337.112     157.165
  H      632.000    -337.210     157.810
  H      633.330    -336.765     158.853

 6  7  8  9  10  11  12  13  14  15  16  26  31  32  33  34  35 0
 6-311+G(2d,p)
 ****
 36  37 0
 6-311+G(2d,p)
 ****
 1  2  3  4  5  17  18  19  20  21  22  23  24  25 0
 3-21G
 ****
 27  28  29  30  38  39  40  41  42  43  44  45 0
 3-21G
 ****


