%nproc=1
%NoSave
%Mem=1900MB
#P OB98/GEN NMR

erre ene a

0 1
  C        0.470    -470.991     315.956
  O       -0.487    -471.486     316.867
  H        1.286    -470.522     316.525
  H        0.019    -470.228     315.317
  H        0.883    -471.796     315.347
  P       -1.724    -472.338     316.309
  C       -3.454    -470.424     316.246
  O       -2.668    -471.330     315.487
  C       -4.898    -470.922     316.362
  O       -5.633    -470.020     317.230
  C       -5.643    -470.993     315.027
  O       -6.493    -472.140     315.019
  C       -6.472    -469.725     315.013
  O       -7.638    -469.852     314.200
  C       -6.786    -469.544     316.504
  N      -10.209    -466.380     318.465
  C      -10.217    -467.769     318.377
  N      -11.311    -468.400     318.866
  N       -9.250    -468.461     317.848
  C       -8.209    -467.697     317.426
  C       -8.074    -466.329     317.464
  C       -9.169    -465.567     318.031
  O       -9.228    -464.345     318.126
  N       -6.880    -465.928     316.915
  C       -6.296    -467.055     316.546
  N       -7.064    -468.152     316.826
  O       -2.437    -473.163     317.340
  O       -1.090    -473.254     315.165
  H       -8.237    -470.483     314.651
  H       -0.993    -474.180     315.467
  H      -10.987    -465.905     318.878
  H       -5.324    -467.121     316.070
  H       -7.657    -470.133     316.822
  H       -5.874    -468.890     314.626
  H      -12.088    -467.921     319.306
  H       -4.954    -471.047     314.174
  H      -11.334    -469.415     318.832
  H       -4.892    -471.900     316.860
  H       -3.439    -469.452     315.741
  H       -3.012    -470.312     317.247
  P       -6.112    -473.394     314.097
  C       -7.536    -472.699     312.057
  O       -6.228    -472.951     312.544
  O       -6.810    -474.675     314.426
  O       -4.533    -473.525     314.308
  H       -4.289    -474.471     314.273
  H       -7.485    -472.416     311.026
  H       -7.981    -471.907     312.622
  H       -8.130    -473.584     312.155

 6  7  8  9  10  11  12  13  14  15  26  29  33  34 0
 6-311+G(2d,p)
 ****
 36  38  39  40  41 0
 6-311+G(2d,p)
 ****
 1  2  3  4  5  16  17  18  19  20  21  22  23  24  25 0
 3-21G
 ****
 27  28  30  31  32  35  37  42  43  44  45  46  47 0
 3-21G
 ****
 48  49 0
 3-21G
 ****


