%nproc=1
%NoSave
%Mem=1900MB
#P OB98/GEN NMR

erre ene a

0 1
  C      571.167      88.738     177.604
  O      572.416      89.392     177.713
  H      570.502      89.115     178.386
  H      571.296      87.662     177.743
  H      570.713      88.935     176.627
  P      573.471      89.166     176.528
  C      573.597      91.634     175.715
  O      574.262      90.553     176.352
  C      574.496      92.869     175.698
  O      574.505      93.455     177.030
  C      575.953      92.569     175.318
  O      576.456      93.671     174.553
  C      576.658      92.536     176.663
  O      578.054      92.794     176.590
  C      575.882      93.617     177.421
  N      576.038      93.506     178.873
  C      576.752      94.510     179.519
  O      577.187      95.525     178.977
  N      576.960      94.313     180.862
  C      576.556      93.232     181.591
  O      576.793      93.106     182.786
  C      575.816      92.201     180.849
  C      575.598      92.381     179.546
  O      572.542      89.100     175.228
  O      574.346      87.966     176.668
  H      572.261      88.182     175.053
  H      578.379      92.924     177.505
  H      577.474      95.031     181.349
  H      575.493      91.323     181.395
  H      575.074      91.630     178.963
  H      576.200      94.616     177.094
  H      576.519      91.555     177.133
  H      576.089      91.638     174.758
  H      574.060      93.614     175.023
  H      572.680      91.869     176.267
  H      573.328      91.340     174.695
  P      577.740      93.402     173.626
  C      576.466      93.512     171.339
  O      577.412      94.104     172.222
  O      577.587      91.837     173.336
  O      579.021      93.806     174.275
  H      576.662      91.555     173.255
  H      576.375      94.113     170.458
  H      575.515      93.447     171.826
  H      576.796      92.531     171.069

 6  7  8  9  10  11  12  13  14  15  16  27  31  32  33  34  35 0
 6-311+G(2d,p)
 ****
 36  37 0
 6-311+G(2d,p)
 ****
 1  2  3  4  5  17  18  19  20  21  22  23  24  25 0
 3-21G
 ****
 26  28  29  30  38  39  40  41  42  43  44  45 0
 3-21G
 ****


