%nproc=1
%NoSave
%Mem=1900MB
#P OB98/GEN NMR

erre ene a

0 1
  C      -73.858     -36.911    -313.138
  O      -73.087     -35.776    -312.763
  P      -72.414     -35.784    -311.303
  C      -74.722     -34.849    -310.570
  O      -73.635     -35.712    -310.265
  C      -76.055     -35.548    -310.309
  O      -76.083     -36.826    -310.978
  C      -76.337     -35.843    -308.844
  O      -76.857     -34.716    -308.160
  C      -77.398     -36.923    -308.966
  O      -78.674     -36.325    -309.255
  C      -76.904     -37.722    -310.180
  N      -77.089     -42.763    -309.342
  C      -78.053     -41.862    -309.619
  N      -77.928     -40.530    -309.820
  C      -76.647     -40.147    -309.666
  C      -75.563     -40.950    -309.346
  C      -75.814     -42.323    -309.190
  N      -74.826     -43.248    -308.934
  N      -74.411     -40.198    -309.272
  C      -74.788     -38.970    -309.556
  N      -76.129     -38.890    -309.809
  O      -71.757     -34.326    -311.202
  O      -71.417     -36.867    -311.076
  H      -78.971     -35.876    -308.441
  H      -71.031     -34.332    -310.549
  H      -79.062     -42.259    -309.702
  H      -74.126     -38.115    -309.594
  H      -77.726     -38.060    -310.820
  H      -77.520     -37.510    -308.051
  H      -75.450     -36.256    -308.344
  H      -76.853     -34.926    -310.736
  H      -74.670     -34.564    -311.627
  H      -75.056     -44.222    -309.020
  H      -73.862     -42.944    -309.021
  H      -74.642     -33.943    -309.958
  P      -76.026     -34.199    -306.884
  C      -78.048     -35.288    -305.664
  O      -76.674     -34.951    -305.626
  O      -76.519     -32.683    -306.723
  O      -74.549     -34.306    -307.032
  H      -75.837     -32.151    -306.274
  H      -78.243     -36.047    -304.900
  H      -78.330     -35.693    -306.639
  H      -78.651     -34.402    -305.443
  H      -74.242     -36.770    -314.127
  H      -74.671     -37.032    -312.453
  H      -73.240     -37.785    -313.117

 3  4  5  6  7  8  9  10  11  12  22  25  29  30  31  32 0
 6-311+G(2d,p)
 ****
 33  36  37 0
 6-311+G(2d,p)
 ****
 1  2  13  14  15  16  17  18  19  20  21  23  24  26 0
 3-21G
 ****
 27  28  34  35  38  39  40  41  42  43  44  45  46  47  48 0
 3-21G
 ****


