%nproc=1
%NoSave
%Mem=1900MB
#P OB98/GEN NMR

erre ene a

0 1
  C       -9.779     -92.306       4.239
  O       -9.623     -92.441       2.841
  P      -10.775     -91.983       1.831
  C      -12.993     -92.903       0.936
  O      -11.937     -93.087       1.868
  C      -14.254     -93.650       1.368
  O      -14.743     -93.089       2.615
  C      -15.397     -93.593       0.347
  O      -16.044     -94.871       0.363
  C      -16.312     -92.526       0.916
  O      -17.644     -92.642       0.437
  C      -16.134     -92.769       2.419
  N      -16.533     -91.622       3.219
  C      -17.885     -91.526       3.554
  O      -18.701     -92.311       3.069
  N      -18.276     -90.533       4.417
  C      -17.429     -89.611       4.756
  N      -17.838     -88.685       5.665
  C      -16.057     -89.545       4.217
  C      -15.664     -90.593       3.498
  O      -10.309     -91.622       0.460
  O      -11.453     -90.724       2.553
  H      -11.465     -89.969       1.933
  H      -17.625     -92.685      -0.542
  H      -15.429     -88.692       4.428
  H      -14.666     -90.653       3.081
  H      -16.715     -93.643       2.738
  H      -15.935     -91.534       0.641
  H      -15.050     -93.376      -0.667
  H      -13.980     -94.693       1.568
  H      -18.772     -88.785       6.043
  H      -12.665     -93.289      -0.031
  H      -17.178     -88.140       6.217
  H      -13.201     -91.833       0.816
  P      -15.688     -95.919      -0.801
  C      -16.269     -96.200      -3.313
  O      -16.493     -95.486      -2.116
  O      -16.503     -97.219      -0.323
  O      -14.244     -96.262      -0.971
  H      -16.077     -98.014      -0.693
  H      -16.845     -95.729      -4.113
  H      -16.603     -97.235      -3.207
  H      -15.211     -96.177      -3.584
  H       -8.901     -92.668       4.732
  H      -10.628     -92.873       4.560
  H       -9.926     -91.275       4.484

 3  4  5  6  7  8  9  10  11  12  13  24  27  28  29  30  32 0
 6-311+G(2d,p)
 ****
 34  35 0
 6-311+G(2d,p)
 ****
 1  2  14  15  16  17  18  19  20  21  22  23  25  26 0
 3-21G
 ****
 31  33  36  37  38  39  40  41  42  43  44  45  46 0
 3-21G
 ****


