%nproc=1
%NoSave
%Mem=1900MB
#P OB98/GEN NMR

erre ene a

0 1
  C     -131.022      69.013     -46.823
  O     -129.866      68.794     -47.606
  P     -128.405      68.819     -46.951
  C     -128.033      71.267     -47.615
  O     -128.070      70.333     -46.544
  C     -126.904      72.281     -47.431
  O     -127.278      73.238     -46.408
  C     -125.561      71.656     -47.024
  O     -124.532      72.389     -47.703
  C     -125.502      71.917     -45.531
  O     -124.175      71.884     -45.026
  C     -126.202      73.276     -45.450
  N     -126.691      73.572     -44.111
  C     -125.731      73.809     -43.124
  O     -124.535      73.635     -43.370
  N     -126.154      74.221     -41.884
  C     -127.420      74.207     -41.605
  N     -127.800      74.687     -40.389
  C     -128.447      73.721     -42.550
  C     -128.023      73.464     -43.785
  O     -127.341      68.142     -47.748
  O     -128.598      68.101     -45.531
  H     -127.948      67.377     -45.449
  H     -124.155      72.326     -44.151
  H     -129.473      73.610     -42.229
  H     -128.704      73.128     -44.558
  H     -125.520      74.080     -45.762
  H     -126.085      71.152     -45.003
  H     -125.486      70.598     -47.287
  H     -126.790      72.836     -48.370
  H     -127.074      75.050     -39.783
  H     -128.987      71.797     -47.638
  H     -128.752      75.010     -40.207
  H     -127.924      70.736     -48.567
  P     -123.523      71.576     -48.658
  C     -121.552      71.542     -46.970
  O     -122.486      70.793     -47.723
  O     -122.614      72.761     -49.248
  O     -124.143      70.807     -49.779
  H     -122.245      72.483     -50.105
  H     -120.888      70.846     -46.449
  H     -122.071      72.150     -46.223
  H     -120.953      72.179     -47.621
  H     -131.890      68.955     -47.445
  H     -130.969      69.982     -46.373
  H     -131.081      68.267     -46.058

 3  4  5  6  7  8  9  10  11  12  13  24  27  28  29  30  32 0
 6-311+G(2d,p)
 ****
 34  35 0
 6-311+G(2d,p)
 ****
 1  2  14  15  16  17  18  19  20  21  22  23  25  26 0
 3-21G
 ****
 31  33  36  37  38  39  40  41  42  43  44  45  46 0
 3-21G
 ****


