%nproc=1
%NoSave
%Mem=1900MB
#P OB98/GEN NMR

erre ene a

0 1
  C       79.676    -133.429    -296.731
  O       80.121    -134.703    -297.239
  P       79.044    -135.709    -297.885
  C       78.484    -134.786    -300.262
  O       79.194    -135.739    -299.482
  C       78.664    -135.048    -301.765
  O       80.058    -135.369    -302.053
  C       77.818    -136.209    -302.314
  O       77.479    -135.874    -303.672
  C       78.798    -137.370    -302.295
  O       78.418    -138.438    -303.150
  C       80.083    -136.648    -302.723
  N       81.313    -137.375    -302.406
  C       81.452    -138.667    -302.908
  O       80.592    -139.262    -303.545
  N       82.643    -139.291    -302.620
  C       83.659    -138.779    -301.862
  O       84.686    -139.402    -301.623
  C       83.445    -137.428    -301.337
  C       82.305    -136.798    -301.624
  O       77.673    -134.897    -297.686
  O       78.945    -137.052    -297.233
  H       79.197    -139.019    -303.242
  H       76.986    -135.495    -297.340
  H       82.769    -140.217    -302.987
  H       84.228    -136.980    -300.737
  H       82.128    -135.791    -301.254
  H       80.047    -136.444    -303.792
  H       78.867    -137.766    -301.274
  H       76.910    -136.395    -301.732
  H       78.437    -134.117    -302.302
  H       78.854    -133.780    -300.030
  H       77.423    -134.833    -299.998
  P       75.978    -136.168    -304.178
  C       75.138    -133.942    -303.076
  O       75.215    -134.762    -304.225
  O       75.369    -136.873    -302.867
  O       75.891    -137.021    -305.398
  H       75.596    -136.400    -302.048
  H       76.092    -133.933    -302.532
  H       74.345    -134.305    -302.415
  H       74.902    -132.923    -303.382
  H       80.513    -132.889    -296.340
  H       78.958    -133.586    -295.953
  H       79.227    -132.866    -297.523

 3  4  5  6  7  8  9  10  11  12  13  23  28  29  30  31  32 0
 6-311+G(2d,p)
 ****
 33  34 0
 6-311+G(2d,p)
 ****
 1  2  14  15  16  17  18  19  20  21  22  24  25  26 0
 3-21G
 ****
 27  35  36  37  38  39  40  41  42  43  44  45 0
 3-21G
 ****


