%nproc=1
%NoSave
%Mem=1900MB
#P OB98/GEN NMR

erre ene a

0 1
  C       76.701     284.854      16.216
  O       76.676     286.265      16.282
  P       76.672     287.156      14.952
  C       74.193     286.655      14.527
  O       75.508     286.610      13.994
  C       73.232     287.384      13.587
  O       71.874     287.221      14.065
  C       73.507     288.890      13.452
  O       73.264     289.244      12.085
  C       72.463     289.509      14.359
  O       72.194     290.865      14.026
  C       71.295     288.540      14.154
  N       70.313     288.618      15.222
  C       69.225     289.470      15.024
  O       69.194     290.213      14.041
  N       68.215     289.470      15.951
  C       68.370     288.824      17.067
  N       67.313     288.795      17.927
  C       69.613     288.115      17.416
  C       70.516     288.012      16.445
  O       77.998     287.314      14.289
  O       76.102     288.575      15.432
  H       76.725     289.279      15.158
  H       71.411     291.165      14.535
  H       69.744     287.698      18.404
  H       71.455     287.487      16.592
  H       70.793     288.737      13.199
  H       72.812     289.477      15.396
  H       74.536     289.158      13.719
  H       73.291     286.901      12.600
  H       66.464     289.260      17.636
  H       74.231     287.189      15.478
  H       67.222     288.079      18.645
  H       73.837     285.637      14.730
  P       74.217     290.341      11.402
  C       76.356     288.883      11.591
  O       75.709     290.094      11.927
  O       73.799     291.673      12.204
  O       74.040     290.559       9.937
  H       73.990     292.447      11.647
  H       77.327     288.856      12.084
  H       76.511     288.821      10.510
  H       75.768     288.025      11.930
  H       76.699     284.451      17.207
  H       77.585     284.537      15.703
  H       75.838     284.506      15.688

 3  4  5  6  7  8  9  10  11  12  13  24  27  28  29  30  32 0
 6-311+G(2d,p)
 ****
 34  35 0
 6-311+G(2d,p)
 ****
 1  2  14  15  16  17  18  19  20  21  22  23  25  26 0
 3-21G
 ****
 31  33  36  37  38  39  40  41  42  43  44  45  46 0
 3-21G
 ****


