%nproc=1
%NoSave
%Mem=1900MB
#P OB98/GEN NMR

erre ene a

0 1
  C     -380.314     410.835    -343.977
  O     -379.784     411.693    -344.979
  P     -380.763     412.498    -345.969
  C     -382.458     411.872    -347.800
  O     -381.390     411.407    -346.969
  C     -382.703     410.895    -348.951
  O     -381.513     410.840    -349.782
  C     -382.997     409.464    -348.478
  O     -383.956     408.881    -349.369
  C     -381.673     408.733    -348.662
  O     -381.880     407.326    -348.849
  C     -381.078     409.469    -349.860
  N     -376.851     409.453    -352.783
  C     -378.165     409.525    -353.093
  N     -379.231     409.497    -352.276
  C     -378.838     409.437    -350.991
  C     -377.539     409.371    -350.515
  C     -376.512     409.376    -351.474
  N     -375.171     409.316    -351.153
  N     -377.531     409.302    -349.137
  C     -378.797     409.340    -348.787
  N     -379.624     409.440    -349.874
  O     -380.138     413.677    -346.642
  O     -381.999     412.915    -345.058
  H     -382.408     407.007    -348.085
  H     -382.317     413.816    -345.297
  H     -378.384     409.607    -354.162
  H     -379.166     409.303    -347.774
  H     -381.439     409.054    -350.807
  H     -381.059     408.865    -347.759
  H     -383.367     409.418    -347.445
  H     -383.522     411.276    -349.566
  H     -382.180     412.848    -348.206
  H     -374.509     409.449    -351.891
  H     -374.910     409.423    -350.172
  H     -383.366     411.997    -347.193
  P     -385.145     408.055    -348.656
  C     -385.185     405.648    -347.640
  O     -384.416     406.795    -347.981
  O     -386.268     407.774    -349.603
  O     -385.515     409.020    -347.442
  H     -384.759     409.602    -347.191
  H     -384.513     404.923    -347.161
  H     -385.620     405.194    -348.538
  H     -385.986     405.919    -346.945
  H     -379.511     410.393    -343.425
  H     -380.896     410.065    -344.438
  H     -380.934     411.401    -343.314

 3  4  5  6  7  8  9  10  11  12  22  25  29  30  31  32 0
 6-311+G(2d,p)
 ****
 33  36  37 0
 6-311+G(2d,p)
 ****
 1  2  13  14  15  16  17  18  19  20  21  23  24  26 0
 3-21G
 ****
 27  28  34  35  38  39  40  41  42  43  44  45  46  47  48 0
 3-21G
 ****


