%nproc=1
%NoSave
%Mem=1900MB
#P OB98/GEN NMR

erre ene a

0 1
  C      -32.136     -82.581     -40.310
  O      -32.243     -81.167     -40.508
  P      -31.006     -80.420     -41.204
  C      -29.577     -80.039     -39.070
  O      -29.684     -80.685     -40.330
  C      -28.126     -80.033     -38.564
  O      -27.674     -81.386     -38.274
  C      -27.131     -79.441     -39.567
  O      -26.058     -78.838     -38.835
  C      -26.603     -80.673     -40.277
  O      -25.369     -80.412     -40.944
  C      -26.525     -81.652     -39.106
  N      -24.092     -86.053     -38.701
  C      -23.804     -84.820     -38.145
  N      -22.725     -84.762     -37.335
  N      -24.510     -83.741     -38.364
  C      -25.579     -83.961     -39.168
  C      -25.967     -85.129     -39.783
  C      -25.162     -86.309     -39.551
  O      -25.362     -87.423     -40.027
  N      -27.096     -84.945     -40.543
  C      -27.385     -83.667     -40.390
  N      -26.516     -83.035     -39.538
  O      -31.325     -78.873     -40.937
  O      -30.875     -80.700     -42.666
  H      -25.018     -81.275     -41.256
  H      -31.597     -78.445     -41.768
  H      -23.508     -86.847     -38.506
  H      -28.202     -83.150     -40.870
  H      -25.622     -81.503     -38.499
  H      -27.331     -81.016     -41.024
  H      -22.169     -85.566     -37.083
  H      -27.555     -78.705     -40.258
  H      -22.515     -83.881     -36.881
  H      -28.085     -79.467     -37.626
  H      -30.215     -80.540     -38.335
  H      -29.972     -79.022     -39.157
  P      -26.020     -77.236     -38.785
  C      -24.433     -76.764     -40.786
  O      -25.758     -76.749     -40.288
  O      -24.640     -76.914     -38.040
  O      -27.189     -76.607     -38.099
  H      -24.684     -76.042     -37.609
  H      -24.313     -77.623     -41.452
  H      -23.692     -76.821     -39.983
  H      -24.261     -75.846     -41.355
  H      -33.026     -82.944     -39.840
  H      -31.292     -82.791     -39.686
  H      -32.010     -83.065     -41.256

 3  4  5  6  7  8  9  10  11  12  23  26  30  31 0
 6-311+G(2d,p)
 ****
 33  35  36  37  38 0
 6-311+G(2d,p)
 ****
 1  2  13  14  15  16  17  18  19  20  21  22  24  25 0
 3-21G
 ****
 27  28  29  32  34  39  40  41  42  43  44  45  46  47  48  49 0
 3-21G
 ****


