%nproc=1
%NoSave
%Mem=1900MB
#P OB98/GEN NMR

erre ene a

0 1
  C     -201.292    -260.372    -380.471
  O     -200.271    -259.359    -380.488
  P     -198.898    -259.476    -379.668
  C     -197.978    -258.827    -377.345
  O     -199.026    -258.654    -378.294
  C     -198.343    -258.243    -375.976
  O     -198.394    -256.779    -376.051
  C     -199.704    -258.715    -375.415
  O     -199.530    -258.887    -374.014
  C     -200.602    -257.525    -375.737
  O     -201.800    -257.505    -374.979
  C     -199.634    -256.381    -375.432
  N     -200.053    -255.066    -375.913
  C     -200.732    -254.234    -375.010
  O     -201.020    -254.607    -373.885
  N     -201.091    -252.970    -375.435
  C     -200.810    -252.587    -376.642
  N     -201.194    -251.320    -376.988
  C     -200.116    -253.432    -377.622
  C     -199.768    -254.644    -377.193
  O     -197.691    -259.112    -380.468
  O     -198.818    -261.005    -379.190
  H     -197.878    -261.295    -379.216
  H     -202.377    -256.808    -375.356
  H     -199.891    -253.062    -378.610
  H     -199.224    -255.323    -377.848
  H     -199.450    -256.332    -374.350
  H     -200.877    -257.566    -376.796
  H     -200.038    -259.662    -375.851
  H     -197.541    -258.487    -375.276
  H     -201.660    -250.760    -376.281
  H     -197.080    -258.316    -377.723
  H     -201.016    -250.913    -377.894
  H     -197.747    -259.897    -377.258
  P     -199.581    -260.356    -373.380
  C     -201.420    -261.879    -372.329
  O     -201.074    -260.612    -372.843
  O     -198.768    -260.160    -372.003
  O     -198.958    -261.451    -374.186
  H     -198.389    -261.007    -371.728
  H     -201.997    -261.743    -371.408
  H     -200.544    -262.494    -372.105
  H     -202.052    -262.402    -373.063
  H     -202.108    -260.067    -381.093
  H     -201.640    -260.511    -379.469
  H     -200.888    -261.292    -380.839

 3  4  5  6  7  8  9  10  11  12  13  24  27  28  29  30  32 0
 6-311+G(2d,p)
 ****
 34  35 0
 6-311+G(2d,p)
 ****
 1  2  14  15  16  17  18  19  20  21  22  23  25  26 0
 3-21G
 ****
 31  33  36  37  38  39  40  41  42  43  44  45  46 0
 3-21G
 ****


