%nproc=1
%NoSave
%Mem=1900MB
#P OB98/GEN NMR

erre ene a

0 1
  C      196.793     861.432      63.442
  O      196.403     861.751      64.785
  P      196.767     860.690      65.934
  C      194.372     859.692      66.155
  O      195.736     859.462      65.839
  C      193.711     858.391      66.622
  O      193.542     857.472      65.532
  C      194.539     857.632      67.644
  O      194.417     858.224      68.930
  C      193.959     856.226      67.552
  O      192.860     856.044      68.476
  C      193.466     856.147      66.085
  N      194.228     855.194      65.292
  C      193.895     853.849      65.469
  O      193.019     853.525      66.275
  N      194.576     852.904      64.748
  C      195.534     853.273      63.949
  N      196.186     852.292      63.254
  C      195.938     854.676      63.750
  C      195.249     855.586      64.447
  O      196.325     861.438      67.275
  O      198.211     860.303      65.962
  H      192.485     855.164      68.265
  H      196.915     861.185      68.010
  H      196.741     854.942      63.071
  H      195.473     856.641      64.373
  H      192.416     855.851      66.065
  H      194.706     855.469      67.805
  H      195.593     857.619      67.340
  H      192.719     858.628      67.047
  H      195.881     851.330      63.420
  H      193.842     860.087      65.280
  H      196.940     852.473      62.604
  H      194.310     860.465      66.927
  P      195.431     859.399      69.319
  C      197.204     858.187      70.726
  O      196.867     858.683      69.444
  O      195.053     859.661      70.859
  O      195.380     860.646      68.507
  H      195.549     860.437      71.191
  H      198.090     857.546      70.631
  H      196.401     857.586      71.139
  H      197.443     859.020      71.397
  H      196.490     862.221      62.786
  H      196.324     860.518      63.142
  H      197.856     861.319      63.397

 3  4  5  6  7  8  9  10  11  12  13  21  23  27  28  29  30  32 0
 6-311+G(2d,p)
 ****
 34  35 0
 6-311+G(2d,p)
 ****
 1  2  14  15  16  17  18  19  20  22  24  25  26 0
 3-21G
 ****
 31  33  36  37  38  39  40  41  42  43  44  45  46 0
 3-21G
 ****


