%nproc=1
%NoSave
%Mem=1900MB
#P OB98/GEN NMR

erre ene a

0 1
  C       36.494     165.298     -50.168
  O       36.740     165.922     -51.436
  P       35.727     165.824     -52.678
  C       36.165     168.105     -53.794
  O       36.296     166.695     -53.900
  C       37.249     168.840     -54.593
  O       38.519     168.796     -53.873
  C       37.502     168.266     -55.999
  O       37.737     169.384     -56.860
  C       38.766     167.449     -55.783
  O       39.458     167.144     -56.979
  C       39.518     168.379     -54.827
  N       40.665     167.786     -54.148
  C       41.944     168.140     -54.600
  O       42.100     168.878     -55.571
  N       43.036     167.625     -53.943
  C       42.874     166.827     -52.936
  N       43.999     166.362     -52.326
  C       41.551     166.414     -52.441
  C       40.504     166.926     -53.084
  O       34.312     166.154     -52.323
  O       35.835     164.314     -53.200
  H       34.958     164.016     -53.506
  H       40.292     166.698     -56.740
  H       41.461     165.751     -51.593
  H       39.493     166.694     -52.761
  H       39.838     169.276     -55.369
  H       38.495     166.504     -55.305
  H       36.660     167.690     -56.395
  H       36.964     169.897     -54.658
  H       44.891     166.677     -52.689
  H       36.255     168.385     -52.740
  H       43.988     165.742     -51.529
  H       35.169     168.401     -54.143
  P       36.605     169.841     -57.898
  C       37.776     172.167     -57.997
  O       37.170     171.106     -58.705
  O       35.530     170.531     -56.925
  O       35.958     168.756     -58.694
  H       34.650     170.489     -57.341
  H       38.688     172.463     -58.520
  H       38.034     171.890     -56.974
  H       37.090     173.019     -57.973
  H       37.308     165.505     -49.505
  H       36.403     164.240     -50.303
  H       35.587     165.683     -49.751

 3  4  5  6  7  8  9  10  11  12  13  24  27  28  29  30  32 0
 6-311+G(2d,p)
 ****
 34  35 0
 6-311+G(2d,p)
 ****
 1  2  14  15  16  17  18  19  20  21  22  23  25  26 0
 3-21G
 ****
 31  33  36  37  38  39  40  41  42  43  44  45  46 0
 3-21G
 ****


