%nproc=1
%NoSave
%Mem=1900MB
#P OB98/GEN NMR

erre ene a

0 1
  C     -122.271    -141.273    -137.670
  O     -121.434    -140.156    -137.439
  H     -122.972    -141.363    -136.837
  H     -121.671    -142.185    -137.731
  H     -122.837    -141.136    -138.595
  P     -120.338    -139.842    -138.566
  C     -120.542    -137.573    -139.833
  O     -120.211    -138.245    -138.628
  C     -121.379    -136.323    -139.536
  O     -122.584    -136.727    -138.822
  C     -120.664    -135.291    -138.650
  O     -121.178    -133.991    -138.983
  C     -121.142    -135.690    -137.264
  O     -120.866    -134.678    -136.323
  C     -122.605    -135.989    -137.580
  N     -123.985    -136.110    -132.659
  C     -123.378    -135.158    -133.398
  N     -123.054    -135.192    -134.706
  C     -123.441    -136.354    -135.262
  C     -124.078    -137.413    -134.638
  C     -124.349    -137.263    -133.268
  N     -124.960    -138.235    -132.508
  N     -124.313    -138.439    -135.536
  C     -123.826    -138.002    -136.680
  N     -123.284    -136.753    -136.561
  O     -121.090    -140.218    -139.927
  O     -119.043    -140.569    -138.424
  H     -121.307    -133.839    -136.575
  H     -120.863    -141.129    -140.192
  H     -123.115    -134.246    -132.868
  H     -123.832    -138.549    -137.616
  H     -123.181    -135.072    -137.747
  H     -120.625    -136.591    -136.918
  H     -119.577    -135.294    -138.771
  H     -121.708    -135.879    -140.483
  H     -121.113    -138.260    -140.467
  H     -119.625    -137.282    -140.353
  H     -125.104    -138.055    -131.528
  H     -125.222    -139.107    -132.945
  P     -120.392    -133.088    -140.054
  C     -120.981    -131.939    -142.330
  O     -121.447    -132.523    -141.122
  O     -119.612    -134.196    -140.914
  O     -119.436    -132.091    -139.486
  H     -118.796    -133.807    -141.282
  H     -121.816    -131.620    -142.917
  H     -120.414    -132.661    -142.880
  H     -120.362    -131.096    -142.103

 6  7  8  9  10  11  12  13  14  15  25  28  32  33  34  35 0
 6-311+G(2d,p)
 ****
 36  37  40 0
 6-311+G(2d,p)
 ****
 1  2  3  4  5  16  17  18  19  20  21  22  23  24 0
 3-21G
 ****
 26  27  29  30  31  38  39 41  42  43  44  45  46  47  48 0
 3-21G
 ****


