%nproc=1
%NoSave
%Mem=1900MB
#P OB98/GEN NMR

erre ene a

0 1
  C      627.942    -609.820      46.979
  O      628.006    -610.576      45.780
  H      627.066    -610.128      47.546
  H      627.841    -608.762      46.717
  H      628.838    -609.969      47.584
  P      629.391    -610.582      44.986
  C      630.156    -611.272      42.594
  O      629.079    -611.172      43.519
  C      629.674    -611.879      41.276
  O      629.500    -613.316      41.452
  C      628.337    -611.311      40.784
  O      628.373    -611.213      39.351
  C      627.344    -612.384      41.160
  O      626.160    -612.340      40.365
  C      628.194    -613.634      40.945
  N      624.429    -616.951      40.656
  C      624.875    -616.016      39.752
  N      624.180    -615.898      38.590
  N      625.925    -615.256      39.944
  C      626.544    -615.481      41.127
  C      626.197    -616.365      42.120
  C      625.030    -617.197      41.898
  O      624.562    -618.028      42.683
  N      627.040    -616.258      43.196
  C      627.887    -615.286      42.864
  N      627.608    -614.790      41.617
  O      630.212    -611.763      45.700
  O      630.147    -609.292      45.004
  H      626.426    -612.395      39.430
  H      630.785    -611.394      46.395
  H      623.604    -617.497      40.462
  H      628.670    -614.903      43.481
  H      628.289    -613.901      39.881
  H      627.059    -612.280      42.205
  H      623.384    -616.468      38.351
  H      628.085    -610.326      41.202
  H      624.517    -615.256      37.901
  H      630.452    -611.738      40.526
  H      630.931    -611.931      43.027
  H      630.588    -610.280      42.430
  P      628.267    -609.757      38.676
  C      628.460    -608.848      36.247
  O      628.078    -609.929      37.099
  O      629.757    -609.178      38.826
  O      627.280    -608.854      39.344
  H      629.729    -608.224      38.968
  H      628.274    -609.114      35.228
  H      629.502    -608.642      36.377
  H      627.890    -607.978      36.498

 6  7  8  9  10  11  12  13  14  15  26  29  33  34 0
 6-311+G(2d,p)
 ****
 36  38  39  40  41 0
 6-311+G(2d,p)
 ****
 1  2  3  4  5  16  17  18  19  20  21  22  23  24  25 0
 3-21G
 ****
 27  28  30  31  32  35  37  42  43  44  45  46  47 0
 3-21G
 ****
 48  49 0
 3-21G
 ****


