%nproc=1
%NoSave
%Mem=1900MB
#P OB98/GEN NMR

erre ene a

0 1
  C     -243.435      76.249     459.633
  O     -244.840      76.236     459.525
  H     -243.143      76.996     460.374
  H     -242.990      76.522     458.672
  H     -243.056      75.274     459.955
  P     -245.553      75.047     458.720
  C     -246.620      74.888     456.373
  O     -245.666      75.546     457.199
  C     -246.259      75.081     454.900
  O     -246.182      76.514     454.632
  C     -244.900      74.462     454.513
  O     -244.983      73.984     453.160
  C     -243.985      75.670     454.580
  O     -242.798      75.476     453.854
  C     -244.901      76.762     454.029
  N     -244.383      78.092     454.335
  C     -243.445      78.624     453.452
  O     -243.032      78.026     452.458
  N     -242.928      79.843     453.788
  C     -243.170      80.523     454.947
  O     -242.622      81.578     455.232
  C     -244.134      79.892     455.867
  C     -244.693      78.727     455.521
  O     -246.830      74.531     459.303
  O     -244.428      73.911     458.618
  H     -242.308      76.317     453.783
  H     -244.837      73.043     458.449
  H     -242.254      80.248     453.154
  H     -244.338      80.393     456.807
  H     -245.390      78.226     456.182
  H     -245.019      76.661     452.942
  H     -243.712      75.874     455.622
  H     -244.592      73.652     455.174
  H     -247.063      74.679     454.274
  H     -247.604      75.317     456.576
  H     -246.637      73.818     456.620
  P     -244.604      72.474     452.772
  C     -242.566      70.916     452.938
  O     -243.005      72.263     452.809
  O     -245.244      71.989     451.511
  O     -245.120      71.605     454.016
  H     -245.600      70.823     453.680
  H     -241.496      70.889     452.952
  H     -242.926      70.343     452.110
  H     -242.945      70.503     453.849

 6  7  8  9  10  11  12  13  14  15  16  26  31  32  33  34  35 0
 6-311+G(2d,p)
 ****
 36  37 0
 6-311+G(2d,p)
 ****
 1  2  3  4  5  17  18  19  20  21  22  23  24  25 0
 3-21G
 ****
 27  28  29  30  38  39  40  41  42  43  44  45 0
 3-21G
 ****


