%nproc=1
%NoSave
%Mem=1900MB
#P OB98/GEN NMR

erre ene a

0 1
  C       35.124     -33.887      31.819
  O       36.254     -33.073      31.504
  P       37.357     -33.626      30.483
  C       39.010     -34.704      32.143
  O       38.052     -34.925      31.120
  C       40.282     -35.530      31.897
  O       41.287     -35.191      32.890
  C       40.037     -37.043      31.971
  O       40.546     -37.749      30.840
  C       40.625     -37.432      33.316
  O       40.990     -38.802      33.386
  C       41.750     -36.408      33.502
  N       42.094     -36.222      34.915
  C       42.859     -37.217      35.506
  O       43.182     -38.253      34.926
  N       43.196     -37.018      36.819
  C       42.781     -35.979      37.599
  O       43.071     -35.869      38.783
  C       41.920     -34.988      36.937
  C       41.621     -35.154      35.646
  O       38.301     -32.610      29.933
  O       36.465     -34.262      29.306
  H       41.187     -39.022      34.323
  H       36.907     -34.067      28.457
  H       43.767     -37.723      37.257
  H       41.554     -34.163      37.530
  H       40.979     -34.447      35.137
  H       42.661     -36.727      32.986
  H       39.864     -37.261      34.087
  H       38.966     -37.274      31.965
  H       40.663     -35.252      30.910
  H       38.585     -34.988      33.106
  H       39.228     -33.633      32.210
  P       39.654     -38.262      29.615
  C       38.334     -40.175      30.760
  O       38.299     -38.877      30.202
  O       40.354     -39.121      28.617
  O       39.171     -36.898      28.926
  H       39.197     -37.002      27.957
  H       37.319     -40.580      30.766
  H       38.697     -40.118      31.790
  H       38.977     -40.841      30.180
  H       34.493     -33.369      32.510
  H       35.457     -34.804      32.258
  H       34.576     -34.098      30.925

 3  4  5  6  7  8  9  10  11  12  13  23  28  29  30  31  32 0
 6-311+G(2d,p)
 ****
 33  34 0
 6-311+G(2d,p)
 ****
 1  2  14  15  16  17  18  19  20  21  22  24  25  26  27 0
 3-21G
 ****
 35  36  37  38  39  40  41  42  43  44  45 0
 3-21G
 ****


