%nproc=1
%NoSave
%Mem=1900MB
#P OB98/GEN NMR

erre ene a

0 1
  C     -286.521     -98.237     -29.634
  O     -287.552     -98.987     -30.242
  H     -286.443     -97.273     -30.146
  H     -285.566     -98.759     -29.727
  H     -286.748     -98.055     -28.580
  P     -287.870    -100.453     -29.675
  C     -286.285    -101.628     -31.354
  O     -286.538    -101.295     -29.998
  C     -285.610    -102.995     -31.444
  O     -284.299    -102.974     -30.840
  C     -286.344    -104.122     -30.728
  O     -287.515    -104.558     -31.394
  C     -285.255    -105.180     -30.720
  O     -285.138    -105.765     -32.027
  C     -284.015    -104.322     -30.374
  N     -283.714    -104.318     -28.941
  C     -283.412    -105.556     -28.362
  O     -283.413    -106.584     -29.036
  N     -283.146    -105.607     -27.013
  C     -283.201    -104.523     -26.303
  N     -282.935    -104.633     -24.974
  C     -283.536    -103.203     -26.871
  C     -283.775    -103.172     -28.179
  O     -289.149    -101.073     -30.138
  O     -287.774    -100.297     -28.085
  H     -286.030    -106.060     -32.287
  H     -287.973    -101.178     -27.683
  H     -283.598    -102.334     -26.231
  H     -284.036    -102.239     -28.668
  H     -283.131    -104.677     -30.918
  H     -285.450    -105.993     -30.017
  H     -286.566    -103.844     -29.688
  H     -285.469    -103.221     -32.511
  H     -282.710    -105.551     -24.612
  H     -285.649    -100.848     -31.786
  H     -283.031    -103.855     -24.332
  H     -287.225    -101.670     -31.912
  P     -288.813    -104.831     -30.483
  C     -288.797    -107.342     -29.758
  O     -288.410    -106.006     -29.471
  O     -289.832    -105.523     -31.501
  O     -289.391    -103.620     -29.821
  H     -290.474    -104.872     -31.843
  H     -288.446    -107.989     -28.982
  H     -288.372    -107.643     -30.693
  H     -289.864    -107.400     -29.816

 6  7  8  9  10  11  12  13  14  15  16  26  30  31  32  33  35 0
 6-311+G(2d,p)
 ****
 37  38 0
 6-311+G(2d,p)
 ****
 1  2  3  4  5  17  18  19  20  21  22  23  24  25 0
 3-21G
 ****
 27  28  29  34  36  39  40  41  42  43  44  45  46 0
 3-21G
 ****


