%nproc=1
%NoSave
%Mem=1900MB
#P OB98/GEN NMR

erre ene a

0 1
  C      251.007      72.568    -130.204
  O      249.843      73.369    -130.198
  H      251.678      72.884    -131.005
  H      251.522      72.690    -129.246
  H      250.742      71.515    -130.330
  P      248.929      73.328    -131.517
  C      250.369      75.319    -132.366
  O      249.786      74.058    -132.664
  C      251.233      75.774    -133.538
  O      252.262      74.796    -133.807
  C      250.473      75.943    -134.849
  O      249.792      77.186    -134.918
  C      251.619      75.889    -135.845
  O      252.319      77.146    -135.851
  C      252.504      74.788    -135.243
  N      254.516      70.628    -137.441
  C      255.064      71.802    -137.062
  N      254.461      72.864    -136.486
  C      253.151      72.624    -136.312
  C      252.450      71.480    -136.655
  C      253.192      70.438    -137.243
  N      252.633      69.246    -137.644
  N      251.108      71.617    -136.352
  C      251.012      72.811    -135.804
  N      252.216      73.463    -135.766
  O      247.770      74.387    -131.204
  O      248.395      71.987    -131.895
  H      253.107      77.026    -136.411
  H      246.997      74.214    -131.775
  H      256.133      71.904    -137.246
  H      250.098      73.248    -135.421
  H      253.572      74.975    -135.398
  H      251.289      75.699    -136.868
  H      249.794      75.100    -135.035
  H      251.730      76.710    -133.251
  H      250.993      75.225    -131.472
  H      253.211      68.649    -138.217
  H      251.626      69.159    -137.637
  H      249.575      76.047    -132.174
  P      248.634      77.330    -136.019
  C      250.452      78.301    -137.610
  O      249.380      77.378    -137.436
  O      248.124      78.834    -135.816
  O      247.528      76.333    -135.898
  H      247.197      78.928    -136.103
  H      250.842      78.211    -138.602
  H      251.225      78.087    -136.902
  H      250.093      79.297    -137.457

 6  7  8  9  10  11  12  13  14  15  25  28  32  33  34  35 0
 6-311+G(2d,p)
 ****
 36  39  40 0
 6-311+G(2d,p)
 ****
 1  2  3  4  5  16  17  18  19  20  21  22  23  24 0
 3-21G
 ****
 26  27  29  30  31  37  38  41  42  43  44  45  46  47 0
 3-21G
 ****
 48 0
 3-21G
 ****


