%nproc=1
%NoSave
%Mem=1900MB
#P OB98/GEN NMR

erre ene a

0 1
  C       22.339      27.935      13.742
  O       21.698      27.209      14.774
  H       21.771      28.849      13.553
  H       22.367      27.340      12.826
  H       23.354      28.205      14.047
  P       22.396      25.835      15.222
  C       21.032      24.927      13.216
  O       22.258      24.886      13.934
  C       20.519      23.513      12.952
  O       21.344      22.849      11.977
  C       20.518      22.608      14.179
  O       19.378      22.854      14.986
  C       20.457      21.239      13.519
  O       19.103      20.950      13.120
  C       21.342      21.427      12.272
  N       24.418      17.371      12.929
  C       23.076      17.500      12.998
  N       22.330      18.615      12.854
  C       23.109      19.683      12.618
  C       24.493      19.705      12.520
  C       25.157      18.477      12.678
  N       26.526      18.349      12.598
  N       24.945      20.983      12.271
  C       23.851      21.710      12.165
  N       22.716      20.977      12.403
  O       21.933      25.265      16.517
  O       23.942      26.250      15.175
  H       18.853      21.602      12.438
  H       24.117      26.834      14.416
  H       22.527      16.583      13.191
  H       23.824      22.762      11.903
  H       20.926      20.911      11.400
  H       20.766      20.438      14.194
  H       21.453      22.693      14.742
  H       19.512      23.596      12.525
  H       21.163      25.458      12.267
  H       26.929      17.472      12.892
  H       27.079      19.191      12.535
  H       20.312      25.482      13.826
  P       19.503      22.894      16.584
  C       18.989      20.403      16.962
  O       19.972      21.429      17.044
  O       18.302      23.412      17.298
  O       20.794      23.793      16.864
  H       20.654      24.356      17.649
  H       19.412      19.477      17.292
  H       18.660      20.304      15.949
  H       18.156      20.656      17.584

 6  7  8  9  10  11  12  13  14  15  25  28  32  33  34  35 0
 6-311+G(2d,p)
 ****
 36  39  40 0
 6-311+G(2d,p)
 ****
 1  2  3  4  5  16  17  18  19  20  21  22  23  24 0
 3-21G
 ****
 26  27  29  30  31  37  38  41  42  43  44  45  46  47 0
 3-21G
 ****
 48 0
 3-21G
 ****


