%nproc=1
%NoSave
%Mem=1900MB
#P OB98/GEN NMR

erre ene a

0 1
  C       20.631    -129.917      94.630
  O       21.790    -129.162      95.004
  P       21.997    -127.640      94.540
  C       21.444    -125.978      96.418
  O       22.471    -126.730      95.780
  C       21.984    -124.914      97.385
  O       22.882    -125.508      98.366
  C       22.755    -123.764      96.720
  O       22.529    -122.613      97.536
  C       24.198    -124.235      96.848
  O       25.151    -123.192      96.704
  C       24.162    -124.861      98.241
  N       28.959    -125.458      99.953
  C       28.090    -124.426     100.052
  N       26.818    -124.356      99.606
  C       26.445    -125.515      99.036
  C       27.214    -126.660      98.871
  C       28.537    -126.598      99.349
  N       29.441    -127.630      99.210
  N       26.500    -127.642      98.211
  C       25.320    -127.099      97.976
  N       25.236    -125.813      98.460
  O       20.845    -127.071      93.773
  O       23.299    -127.688      93.601
  H       25.022    -122.555      97.434
  H       23.130    -127.170      92.790
  H       28.469    -123.539     100.554
  H       24.507    -127.571      97.446
  H       24.229    -124.093      99.026
  H       24.403    -124.984      96.070
  H       22.458    -123.578      95.688
  H       21.127    -124.517      97.951
  H       20.792    -126.674      96.969
  H       30.389    -127.461      99.502
  H       29.187    -128.437      98.655
  H       20.833    -125.493      95.648
  P       21.746    -121.327      96.980
  C       19.606    -121.939      95.710
  O       20.185    -121.706      96.982
  O       22.260    -120.789      95.684
  O       21.864    -120.245      98.155
  H       21.689    -119.351      97.794
  H       19.436    -120.985      95.198
  H       18.652    -122.454      95.842
  H       20.260    -122.570      95.092
  H       20.697    -130.901      95.045
  H       20.577    -129.982      93.563
  H       19.753    -129.431      95.003

 3  4  5  6  7  8  9  10  11  12  22  25  29  30  31  32 0
 6-311+G(2d,p)
 ****
 33  36  37 0
 6-311+G(2d,p)
 ****
 1  2  13  14  15  16  17  18  19  20  21  23  24  26 0
 3-21G
 ****
 27  28  34  35  38  39  40  41  42  43  44  45  46  47  48 0
 3-21G
 ****


