%nproc=1
%NoSave
%Mem=1900MB
#P OB98/GEN NMR

erre ene a

0 1
  C     1587.985    -214.905    -983.939
  O     1587.719    -215.075    -982.558
  P     1587.870    -213.782    -981.615
  C     1590.455    -214.110    -981.443
  O     1589.210    -214.039    -980.753
  C     1591.602    -214.390    -980.485
  O     1591.618    -213.431    -979.414
  C     1591.503    -215.757    -979.795
  O     1592.005    -216.817    -980.617
  C     1592.427    -215.533    -978.603
  O     1593.802    -215.662    -979.025
  C     1592.128    -214.086    -978.227
  N     1591.368    -214.511    -973.190
  C     1592.451    -214.779    -973.961
  N     1592.563    -214.630    -975.291
  C     1591.414    -214.235    -975.845
  C     1590.219    -213.970    -975.181
  C     1590.228    -214.109    -973.780
  N     1589.141    -213.827    -972.998
  N     1589.254    -213.571    -976.083
  C     1589.833    -213.593    -977.234
  N     1591.149    -213.957    -977.160
  O     1586.700    -213.976    -980.531
  O     1587.779    -212.466    -982.312
  H     1593.918    -215.083    -979.806
  H     1586.467    -213.108    -980.138
  H     1593.327    -215.137    -973.437
  H     1589.365    -213.309    -978.190
  H     1593.021    -213.525    -977.913
  H     1592.276    -216.270    -977.800
  H     1590.491    -215.963    -979.429
  H     1592.551    -214.306    -981.040
  H     1590.643    -213.145    -981.943
  H     1589.270    -213.782    -971.995
  H     1588.362    -213.328    -973.414
  H     1590.396    -214.887    -982.222
  P     1590.960    -217.989    -980.967
  C     1590.653    -218.800    -978.515
  O     1591.170    -219.079    -979.795
  O     1591.627    -218.685    -982.247
  O     1589.564    -217.530    -981.228
  H     1590.937    -219.127    -982.787
  H     1590.579    -219.721    -977.944
  H     1589.657    -218.349    -978.573
  H     1591.338    -218.112    -977.989
  H     1587.848    -215.837    -984.446
  H     1588.994    -214.573    -984.070
  H     1587.314    -214.176    -984.344

 3  4  5  6  7  8  9  10  11  12  22  25  29  30  31  32 0
 6-311+G(2d,p)
 ****
 33  36  37 0
 6-311+G(2d,p)
 ****
 1  2  13  14  15  16  17  18  19  20  21  23  24  26 0
 3-21G
 ****
 27  28  34  35  38  39  40  41  42  43  44  45  46  47  48 0
 3-21G
 ****


