%nproc=1
%NoSave
%Mem=1900MB
#P OB98/GEN NMR

erre ene a

0 1
  C     -501.965    -203.054    -227.602
  O     -502.610    -204.004    -228.427
  H     -500.972    -202.821    -227.998
  H     -502.561    -202.136    -227.590
  H     -501.881    -203.435    -226.580
  P     -501.873    -205.418    -228.609
  C     -503.226    -206.576    -226.710
  O     -501.958    -206.124    -227.169
  C     -503.044    -207.336    -225.400
  O     -502.089    -208.409    -225.573
  C     -502.503    -206.479    -224.261
  O     -503.512    -205.722    -223.623
  C     -501.946    -207.551    -223.342
  O     -503.022    -208.185    -222.627
  C     -501.323    -208.529    -224.346
  N     -496.584    -208.413    -222.410
  C     -497.768    -208.790    -221.877
  N     -498.978    -208.812    -222.466
  C     -498.897    -208.399    -223.739
  C     -497.764    -207.987    -224.419
  C     -496.558    -207.998    -223.698
  N     -495.359    -207.583    -224.227
  N     -498.081    -207.613    -225.710
  C     -499.380    -207.811    -225.810
  N     -499.923    -208.254    -224.635
  O     -500.325    -205.031    -228.729
  O     -502.354    -206.263    -229.741
  H     -503.667    -208.486    -223.291
  H     -499.810    -205.787    -229.063
  H     -497.730    -209.116    -220.842
  H     -499.968    -207.638    -226.701
  H     -501.387    -209.573    -224.013
  H     -501.258    -207.150    -222.590
  H     -501.678    -205.838    -224.599
  H     -504.007    -207.787    -225.128
  H     -503.662    -207.242    -227.463
  H     -494.581    -207.486    -223.589
  H     -495.353    -207.135    -225.130
  H     -503.886    -205.719    -226.561
  P     -503.060    -204.379    -222.857
  C     -504.511    -202.788    -224.310
  O     -503.202    -203.184    -223.918
  O     -501.479    -204.566    -222.714
  O     -503.728    -204.166    -221.536
  H     -501.151    -204.146    -221.897
  H     -504.445    -201.987    -225.016
  H     -505.057    -202.461    -223.450
  H     -505.015    -203.618    -224.759

 6  7  8  9  10  11  12  13  14  15  25  28  32  33  34  35 0
 6-311+G(2d,p)
 ****
 36  39  40 0
 6-311+G(2d,p)
 ****
 1  2  3  4  5  16  17  18  19  20  21  22  23  24 0
 3-21G
 ****
 26  27  29  30  31  37  38  41  42  43  44  45  46  47 0
 3-21G
 ****
 48 0
 3-21G
 ****


