%nproc=1
%NoSave
%Mem=1900MB
#P OB98/GEN NMR

erre ene a

0 1
  C      -31.409     -55.714       3.969
  O      -31.309     -54.550       4.762
  H      -30.809     -55.573       3.065
  H      -32.447     -55.884       3.674
  H      -31.028     -56.585       4.508
  P      -31.989     -54.541       6.213
  C      -34.389     -54.447       7.145
  O      -33.575     -54.524       5.981
  C      -35.819     -54.856       6.806
  O      -35.818     -55.948       5.860
  C      -36.621     -55.348       8.006
  O      -37.027     -54.265       8.818
  C      -37.747     -56.090       7.302
  O      -38.744     -55.176       6.820
  C      -36.995     -56.746       6.120
  N      -36.639     -58.142       6.378
  C      -37.694     -59.048       6.403
  O      -38.866     -58.725       6.227
  N      -37.357     -60.346       6.687
  C      -36.113     -60.790       7.029
  O      -35.897     -61.907       7.486
  C      -35.029     -59.804       6.912
  C      -35.338     -58.541       6.612
  O      -31.477     -53.511       7.162
  O      -31.725     -56.024       6.759
  H      -30.975     -56.008       7.385
  H      -38.267     -54.484       6.322
  H      -38.120     -61.003       6.754
  H      -34.017     -60.133       7.112
  H      -34.558     -57.791       6.550
  H      -37.608     -56.713       5.211
  H      -38.253     -56.797       7.961
  H      -36.030     -56.068       8.583
  H      -36.316     -54.000       6.332
  H      -34.382     -53.413       7.506
  H      -33.970     -55.098       7.918
  P      -37.171     -54.428      10.402
  C      -38.630     -55.729      12.059
  O      -38.349     -55.476      10.690
  O      -37.283     -53.148      11.162
  O      -35.857     -55.235      10.837
  H      -35.404     -54.746      11.550
  H      -39.428     -56.438      12.134
  H      -38.918     -54.817      12.539
  H      -37.757     -56.123      12.536

 6  7  8  9  10  11  12  13  14  15  16  27  31  32  33  34  35 0
 6-311+G(2d,p)
 ****
 36  37 0
 6-311+G(2d,p)
 ****
 1  2  3  4  5  17  18  19  20  21  22  23  24  25 0
 3-21G
 ****
 26  28  29  30  38  39  40  41  42  43  44  45 0
 3-21G
 ****


