%nproc=1
%NoSave
%Mem=1900MB
#P OB98/GEN NMR

erre ene a

0 1
  C      225.270    -647.829      61.089
  O      224.409    -646.954      61.791
  P      224.846    -646.384      63.223
  C      225.075    -644.091      64.360
  O      224.754    -644.784      63.158
  C      224.839    -642.590      64.188
  O      225.770    -642.045      63.227
  C      223.453    -642.237      63.666
  O      222.484    -642.342      64.691
  C      223.688    -640.821      63.152
  O      223.627    -639.873      64.231
  C      225.119    -640.917      62.601
  N      224.363    -638.529      58.157
  C      224.093    -638.170      59.431
  N      224.288    -638.878      60.560
  C      224.805    -640.088      60.276
  C      225.097    -640.608      59.021
  C      224.879    -639.759      57.924
  N      225.215    -640.090      56.629
  N      225.577    -641.901      59.141
  C      225.561    -642.154      60.433
  N      225.164    -641.068      61.157
  O      226.135    -646.920      63.756
  O      223.629    -646.780      64.177
  H      223.778    -638.987      63.846
  H      223.953    -647.362      64.889
  H      223.672    -637.174      59.558
  H      225.842    -643.092      60.888
  H      225.712    -640.031      62.851
  H      222.945    -640.512      62.409
  H      223.197    -642.887      62.824
  H      225.027    -642.102      65.154
  H      226.127    -644.279      64.598
  H      225.148    -639.355      55.937
  H      225.862    -640.859      56.476
  H      224.458    -644.480      65.179
  P      220.958    -642.637      64.317
  C      218.819    -642.938      65.699
  O      220.220    -643.089      65.674
  O      220.739    -643.541      63.146
  O      220.346    -641.182      64.050
  H      219.649    -641.244      63.376
  H      218.565    -641.887      65.877
  H      218.414    -643.544      66.520
  H      218.368    -643.273      64.761
  H      224.817    -648.105      60.160
  H      225.443    -648.707      61.676
  H      226.201    -647.337      60.900

 3  4  5  6  7  8  9  10  11  12  22  25  29  30  31  32 0
 6-311+G(2d,p)
 ****
 33  36  37 0
 6-311+G(2d,p)
 ****
 1  2  13  14  15  16  17  18  19  20  21  23  24  26 0
 3-21G
 ****
 27  28  34  35  38  39  40  41  42  43  44  45  46  47  48 0
 3-21G
 ****


