%nproc=1
%NoSave
%Mem=1900MB
#P OB98/GEN NMR

erre ene a

0 1
  C        8.095      46.225     -79.697
  O        6.705      46.151     -79.959
  P        6.017      47.044     -81.105
  C        5.656      44.976     -82.615
  O        6.269      46.246     -82.472
  C        4.973      44.865     -83.980
  O        5.977      45.031     -85.016
  C        4.268      43.526     -84.228
  O        3.103      43.798     -85.015
  C        5.290      42.751     -85.037
  O        4.708      41.699     -85.793
  C        5.909      43.875     -85.875
  N        7.227      43.528     -86.394
  C        7.286      42.776     -87.568
  O        6.258      42.400     -88.131
  N        8.517      42.462     -88.086
  C        9.593      42.793     -87.443
  N       10.790      42.511     -88.028
  C        9.574      43.492     -86.144
  C        8.372      43.843     -85.698
  O        6.446      48.470     -81.128
  O        4.450      46.834     -80.881
  H        4.110      42.093     -86.457
  H        4.072      47.450     -80.205
  H       10.498      43.722     -85.632
  H        8.261      44.380     -84.767
  H        5.242      44.138     -86.704
  H        6.031      42.308     -84.362
  H        3.970      43.027     -83.301
  H        4.262      45.696     -84.079
  H       10.763      42.192     -88.990
  H        4.900      44.867     -81.833
  H       11.631      43.012     -87.762
  H        6.405      44.187     -82.485
  P        1.867      42.777     -84.922
  C        0.269      44.224     -83.475
  O        1.082      43.072     -83.557
  O        2.613      41.395     -84.585
  O        1.041      42.619     -86.156
  H        2.060      40.653     -84.891
  H       -0.189      44.259     -82.483
  H       -0.527      44.186     -84.224
  H        0.869      45.127     -83.617
  H        8.344      45.554     -78.902
  H        8.352      47.224     -79.414
  H        8.639      45.953     -80.577

 3  4  5  6  7  8  9  10  11  12  13  23  27  28  29  30  32 0
 6-311+G(2d,p)
 ****
 34  35 0
 6-311+G(2d,p)
 ****
 1  2  14  15  16  17  18  19  20  21  22  24  25  26 0
 3-21G
 ****
 31  33  36  37  38  39  40  41  42  43  44  45  46 0
 3-21G
 ****


