%nproc=1
%NoSave
%Mem=1900MB
#P OB98/GEN NMR

erre ene a

0 1
  C      -55.516    -805.855    -893.930
  O      -54.757    -805.003    -893.020
  P      -53.217    -805.309    -892.760
  C      -51.715    -803.631    -894.090
  O      -52.328    -804.918    -894.060
  C      -50.565    -803.589    -895.130
  O      -49.584    -804.633    -894.810
  C      -51.003    -803.819    -896.620
  O      -50.093    -803.049    -897.400
  C      -50.738    -805.316    -896.780
  O      -50.632    -805.692    -898.160
  C      -49.447    -805.486    -896.000
  N      -49.111    -806.848    -895.590
  C      -48.730    -807.741    -896.590
  O      -48.706    -807.473    -897.800
  N      -48.420    -809.000    -896.150
  C      -48.530    -809.482    -894.900
  O      -48.249    -810.630    -894.590
  C      -48.948    -808.495    -893.870
  C      -49.272    -807.267    -894.290
  O      -53.186    -806.932    -892.850
  O      -52.676    -804.829    -891.440
  H      -49.674    -805.511    -898.410
  H      -52.658    -807.300    -892.090
  H      -48.148    -809.663    -896.910
  H      -49.042    -808.834    -892.840
  H      -49.564    -806.549    -893.530
  H      -48.590    -805.053    -896.560
  H      -51.566    -805.901    -896.340
  H      -52.051    -803.557    -896.750
  H      -50.024    -802.625    -895.000
  H      -51.340    -803.425    -893.100
  H      -52.479    -802.878    -894.330
  P      -50.705    -802.305    -898.740
  C      -49.787    -799.878    -898.420
  O      -50.878    -800.771    -898.350
  O      -52.208    -802.884    -898.720
  O      -49.941    -802.635    -900.000
  H      -52.613    -802.847    -897.840
  H      -49.162    -800.058    -899.330
  H      -49.176    -799.982    -897.530
  H      -50.150    -798.878    -898.490
  H      -56.526    -805.507    -893.986
  H      -55.505    -806.862    -893.568
  H      -55.073    -805.821    -894.903

 3  4  5  6  7  8  9  10  11  12  13  23  28  29  30  31  32 0
 6-311+G(2d,p)
 ****
 33  34 0
 6-311+G(2d,p)
 ****
 1  2  14  15  16  17  18  19  20  21  22  24  25  26 0
 3-21G
 ****
 27  35  36  37  38  39  40  41  42  43  44  45 0
 3-21G
 ****


