%nproc=1
%NoSave
%Mem=1900MB
#P OB98/GEN NMR

erre ene a

0 1
  C      466.618     185.514     513.322
  O      465.934     184.926     512.217
  P      466.661     184.718     510.797
  C      465.598     186.959     510.048
  O      466.778     186.182     510.163
  C      464.696     186.378     508.952
  O      463.396     187.033     509.063
  C      465.206     186.610     507.520
  O      464.818     185.456     506.757
  C      464.445     187.836     507.071
  O      464.374     187.948     505.654
  C      463.095     187.609     507.765
  N      462.321     188.844     507.914
  C      461.801     189.411     506.763
  O      461.977     188.908     505.649
  N      461.031     190.562     506.877
  C      460.906     191.134     508.038
  N      460.112     192.234     508.106
  C      461.548     190.618     509.264
  C      462.217     189.479     509.125
  O      466.016     183.693     509.919
  O      468.176     184.391     511.176
  H      465.281     187.867     505.297
  H      468.332     183.423     511.376
  H      461.440     191.145     510.199
  H      462.698     189.009     509.987
  H      462.498     186.859     507.207
  H      464.940     188.742     507.463
  H      466.291     186.726     507.481
  H      464.541     185.315     509.147
  H      459.543     192.438     507.300
  H      465.875     187.980     509.779
  H      459.697     192.519     508.999
  H      465.086     186.977     511.021
  P      465.618     185.144     505.387
  C      463.420     185.144     503.997
  O      464.720     185.679     504.159
  O      465.452     183.559     505.271
  O      467.064     185.516     505.367
  H      466.182     183.205     504.741
  H      462.957     185.620     503.119
  H      462.797     185.362     504.876
  H      463.461     184.058     503.817
  H      465.960     185.560     514.165
  H      466.934     186.503     513.061
  H      467.473     184.920     513.569

 3  4  5  6  7  8  9  10  11  12  13  23  27  28  29  30  32 0
 6-311+G(2d,p)
 ****
 34  35 0
 6-311+G(2d,p)
 ****
 1  2  14  15  16  17  18  19  20  21  22  24  25  26 0
 3-21G
 ****
 31  33  36  37  38  39  40  41  42  43  44  45  46 0
 3-21G
 ****


