%nproc=1
%NoSave
%Mem=1900MB
#P OB98/GEN NMR

erre ene a

0 1
  C       -3.889     199.108     223.811
  O       -3.436     197.980     223.090
  P       -4.276     197.417     221.844
  C       -6.504     196.123     221.734
  O       -5.307     196.355     222.471
  C       -7.275     194.936     222.312
  O       -7.176     194.920     223.749
  C       -8.765     194.952     221.999
  O       -8.999     194.537     220.666
  C       -9.298     194.003     223.062
  O       -9.150     192.631     222.659
  C       -8.382     194.317     224.266
  N       -9.035     195.167     225.252
  C      -10.116     194.597     225.933
  O      -10.489     193.454     225.663
  N      -10.782     195.354     226.867
  C      -10.411     196.579     227.082
  N      -11.116     197.280     228.011
  C       -9.296     197.226     226.365
  C       -8.660     196.471     225.472
  O       -3.462     196.921     220.698
  O       -5.225     198.651     221.463
  H       -9.597     192.555     221.791
  H       -4.720     199.365     221.004
  H       -9.030     198.253     226.572
  H       -7.832     196.869     224.898
  H       -8.072     193.391     224.765
  H      -10.361     194.164     223.264
  H       -9.169     195.957     222.168
  H       -6.816     194.015     221.928
  H      -11.892     196.809     228.460
  H       -6.232     195.907     220.696
  H      -10.935     198.249     228.231
  H       -7.117     197.030     221.748
  P      -10.224     195.152     219.842
  C      -12.564     195.896     220.586
  O      -11.558     194.907     220.693
  O      -10.297     194.747     218.406
  O      -10.001     196.734     219.971
  H      -10.148     197.148     219.100
  H      -13.512     195.470     220.920
  H      -12.672     196.236     219.553
  H      -12.310     196.744     221.226
  H       -3.199     199.328     224.599
  H       -4.853     198.901     224.228
  H       -3.958     199.948     223.152

 3  4  5  6  7  8  9  10  11  12  13  23  27  28  29  30  32 0
 6-311+G(2d,p)
 ****
 34  35 0
 6-311+G(2d,p)
 ****
 1  2  14  15  16  17  18  19  20  21  22  24  25  26 0
 3-21G
 ****
 31  33  36  37  38  39  40  41  42  43  44  45  46 0
 3-21G
 ****


