%nproc=1
%NoSave
%Mem=1900MB
#P OB98/GEN NMR

erre ene a

0 1
  C       73.383     -34.111    -823.896
  O       73.341     -35.160    -824.874
  P       71.908     -35.530    -825.492
  C       70.568     -34.999    -827.662
  O       71.808     -34.901    -826.966
  C       70.425     -33.836    -828.653
  O       70.387     -32.567    -827.962
  C       71.597     -33.732    -829.618
  O       71.469     -34.704    -830.651
  C       71.474     -32.292    -830.108
  O       70.640     -32.193    -831.280
  C       70.829     -31.567    -828.906
  N       71.729     -30.612    -828.280
  C       71.295     -29.276    -828.275
  O       70.212     -28.967    -828.797
  N       72.097     -28.327    -827.692
  C       73.252     -28.669    -827.198
  N       74.002     -27.681    -826.648
  C       73.754     -30.060    -827.214
  C       72.957     -30.969    -827.763
  O       70.895     -34.636    -824.636
  O       71.571     -36.987    -825.399
  H       69.767     -32.542    -831.000
  H       70.042     -35.094    -824.529
  H       74.720     -30.293    -826.791
  H       73.250     -32.012    -827.821
  H       69.931     -31.015    -829.227
  H       72.453     -31.884    -830.386
  H       72.546     -33.858    -829.086
  H       69.486     -33.968    -829.209
  H       73.619     -26.741    -826.655
  H       69.734     -34.981    -826.948
  H       74.912     -27.837    -826.235
  H       70.513     -35.962    -828.174
  P       72.371     -36.027    -830.535
  C       72.194     -37.767    -828.651
  O       71.492     -37.038    -829.642
  O       73.511     -35.575    -829.502
  O       72.937     -36.578    -831.800
  H       74.185     -36.282    -829.416
  H       71.474     -38.255    -827.992
  H       72.831     -37.114    -828.055
  H       72.805     -38.547    -829.127
  H       74.392     -33.968    -823.570
  H       72.772     -34.379    -823.059
  H       73.017     -33.204    -824.330

 3  4  5  6  7  8  9  10  11  12  13  21  23  27  28  29  30  32 0
 6-311+G(2d,p)
 ****
 34  35 0
 6-311+G(2d,p)
 ****
 1  2  14  15  16  17  18  19  20  22  24  25  26 0
 3-21G
 ****
 31  33  36  37  38  39  40  41  42  43  44  45  46 0
 3-21G
 ****


