%nproc=1
%NoSave
%Mem=1900MB
#P OB98/GEN NMR

erre ene a

0 1
  C     -303.536     182.046    -123.344
  O     -302.409     181.991    -124.198
  H     -304.407     182.351    -123.929
  H     -303.369     182.779    -122.549
  H     -303.729     181.063    -122.906
  P     -301.022     181.538    -123.533
  C     -300.034     183.944    -123.563
  O     -300.440     182.828    -122.778
  C     -298.626     184.372    -123.158
  O     -298.669     185.031    -121.870
  C     -297.654     183.212    -122.988
  O     -297.165     182.731    -124.224
  C     -296.582     183.853    -122.121
  O     -295.645     184.600    -122.909
  C     -297.395     184.799    -121.225
  N     -295.158     183.859    -116.733
  C     -294.725     184.500    -117.838
  N     -295.390     184.718    -118.995
  C     -296.636     184.225    -118.926
  C     -297.217     183.551    -117.865
  C     -296.421     183.375    -116.720
  N     -296.853     182.701    -115.599
  N     -298.503     183.161    -118.181
  C     -298.697     183.594    -119.410
  N     -297.599     184.246    -119.900
  O     -300.054     181.366    -124.797
  O     -301.089     180.295    -122.709
  H     -295.474     184.067    -123.710
  H     -299.985     180.419    -125.026
  H     -293.706     184.876    -117.799
  H     -299.607     183.458    -119.988
  H     -296.910     185.774    -121.102
  H     -296.023     183.098    -121.568
  H     -298.129     182.403    -122.420
  H     -298.250     185.090    -123.898
  H     -300.727     184.774    -123.397
  H     -300.060     183.663    -124.621
  H     -296.206     182.550    -114.844
  H     -297.753     182.236    -115.624
  P     -296.743     181.187    -124.311
  C     -294.157     181.498    -124.462
  O     -295.268     181.061    -123.692
  O     -296.520     180.934    -125.877
  O     -297.737     180.238    -123.730
  H     -296.807     180.029    -126.110
  H     -293.256     181.345    -123.906
  H     -294.265     182.539    -124.686
  H     -294.113     180.940    -125.374

 6  7  8  9  10  11  12  13  14  15  25  28  32  33  34  35 0
 6-311+G(2d,p)
 ****
 36  37  40 0
 6-311+G(2d,p)
 ****
 1  2  3  4  5  16  17  18  19  20  21  22  23  24 0
 3-21G
 ****
 26  27  29  30  31  38  39 41  42  43  44  45  46  47  48 0
 3-21G
 ****


