%nproc=1
%NoSave
%Mem=1900MB
#P OB98/GEN NMR

erre ene a

0 1
  C       63.225       4.229    -776.194
  O       64.078       5.351    -776.460
  P       65.084       5.804    -775.294
  C       67.070       4.599    -774.116
  O       66.374       4.850    -775.335
  C       68.401       3.896    -774.401
  O       68.196       2.675    -775.147
  C       69.341       4.734    -775.258
  O       69.973       5.731    -774.462
  C       70.302       3.678    -775.797
  O       71.436       3.489    -774.927
  C       69.426       2.406    -775.850
  N       69.171       1.960    -777.211
  C       70.243       1.322    -777.858
  O       71.330       1.179    -777.276
  N       70.060       0.871    -779.142
  C       68.928       1.078    -779.746
  N       68.817       0.621    -781.019
  C       67.790       1.775    -779.111
  C       67.974       2.186    -777.860
  O       64.326       5.351    -773.960
  O       65.377       7.273    -775.291
  H       71.050       3.266    -774.053
  H       64.524       5.966    -773.231
  H       66.869       1.924    -779.654
  H       67.194       2.711    -777.319
  H       69.921       1.577    -775.318
  H       70.702       3.970    -776.773
  H       68.798       5.193    -776.092
  H       68.879       3.652    -773.443
  H       69.620       0.145    -781.419
  H       66.455       3.973    -773.454
  H       67.981       0.728    -781.581
  H       67.228       5.542    -773.585
  P       69.674       7.267    -774.824
  C       67.635       8.721    -774.242
  O       68.085       7.431    -774.615
  O       69.800       7.268    -776.425
  O       70.541       8.298    -774.187
  H       69.726       8.184    -776.766
  H       66.547       8.754    -774.325
  H       68.063       9.491    -774.882
  H       67.902       8.918    -773.194
  H       62.611       4.037    -777.049
  H       62.604       4.445    -775.350
  H       63.824       3.367    -775.984

 3  4  5  6  7  8  9  10  11  12  13  21  23  27  28  29  30  32 0
 6-311+G(2d,p)
 ****
 34  35 0
 6-311+G(2d,p)
 ****
 1  2  14  15  16  17  18  19  20  22  24  25  26 0
 3-21G
 ****
 31  33  36  37  38  39  40  41  42  43  44  45  46 0
 3-21G
 ****


