%nproc=1
%NoSave
%Mem=1900MB
#P OB98/GEN NMR

erre ene a

0 1
  C      525.830     311.299      37.591
  O      526.638     310.310      38.203
  P      528.214     310.351      37.916
  C      528.466     309.420      40.330
  O      528.905     309.370      38.975
  C      529.402     308.624      41.246
  O      529.211     307.208      41.004
  C      530.882     308.929      41.054
  O      531.515     308.895      42.342
  C      531.386     307.768      40.217
  O      532.787     307.562      40.384
  C      530.499     306.628      40.739
  N      530.402     305.522      39.790
  C      531.409     304.548      39.826
  O      532.370     304.695      40.596
  N      531.339     303.483      38.971
  C      530.409     303.433      38.074
  N      530.377     302.358      37.243
  C      529.392     304.503      37.906
  C      529.439     305.494      38.798
  O      528.638     311.817      38.436
  O      528.596     310.142      36.481
  H      532.944     307.203      41.290
  H      529.375     312.179      37.908
  H      528.662     304.435      37.107
  H      528.712     306.314      38.769
  H      530.888     306.225      41.678
  H      531.194     307.965      39.145
  H      531.063     309.913      40.592
  H      529.101     308.813      42.287
  H      531.089     301.646      37.369
  H      527.466     308.976      40.390
  H      529.687     302.239      36.513
  H      528.406     310.462      40.647
  P      532.705     309.929      42.643
  C      531.452     310.343      44.847
  O      532.708     310.112      44.228
  O      532.026     311.307      42.148
  O      534.014     309.717      41.959
  H      532.682     312.035      42.227
  H      531.588     310.318      45.935
  H      530.731     309.582      44.548
  H      531.060     311.344      44.559
  H      524.808     311.148      37.871
  H      525.923     311.228      36.527
  H      526.148     312.269      37.913

 3  4  5  6  7  8  9  10  11  12  13  21  23  27  28  29  30  32 0
 6-311+G(2d,p)
 ****
 34  35 0
 6-311+G(2d,p)
 ****
 1  2  14  15  16  17  18  19  20  22  24  25  26 0
 3-21G
 ****
 31  33  36  37  38  39  40  41  42  43  44  45  46 0
 3-21G
 ****


