%nproc=1
%NoSave
%Mem=1900MB
#P OB98/GEN NMR

erre ene a

0 1
  C     -104.930    -323.371     207.452
  O     -104.704    -322.010     207.759
  H     -103.983    -323.911     207.541
  H     -105.290    -323.461     206.424
  H     -105.654    -323.811     208.142
  P     -106.001    -321.100     208.014
  C     -107.099    -321.367     210.349
  O     -106.926    -321.907     209.049
  C     -108.405    -321.865     210.961
  O     -109.535    -321.355     210.222
  C     -108.552    -323.384     210.975
  O     -107.890    -323.963     212.093
  C     -110.061    -323.518     211.103
  O     -110.459    -323.262     212.469
  C     -110.559    -322.389     210.192
  N     -114.007    -324.003     206.842
  C     -114.132    -323.765     208.198
  N     -115.346    -324.003     208.740
  N     -113.156    -323.343     208.956
  C     -111.994    -323.173     208.284
  C     -111.741    -323.380     206.948
  C     -112.835    -323.833     206.117
  O     -112.779    -324.043     204.909
  N     -110.440    -323.102     206.627
  C     -109.896    -322.749     207.775
  N     -110.794    -322.780     208.812
  O     -106.792    -321.218     206.622
  O     -105.723    -319.677     208.359
  H     -109.990    -323.907     213.026
  H     -106.646    -320.402     206.107
  H     -114.790    -324.339     206.306
  H     -108.862    -322.458     207.909
  H     -111.487    -321.939     210.559
  H     -110.417    -324.520     210.852
  H     -116.134    -324.350     208.216
  H     -108.221    -323.833     210.031
  H     -115.459    -323.833     209.730
  H     -108.475    -321.462     211.980
  H     -107.121    -320.272     210.285
  H     -106.253    -321.671     210.974
  P     -107.594    -325.539     212.067
  C     -105.031    -325.274     211.777
  O     -106.248    -325.747     211.216
  O     -108.742    -326.096     211.099
  O     -107.629    -326.212     213.394
  H     -109.376    -326.633     211.609
  H     -104.225    -325.479     211.104
  H     -104.852    -325.768     212.709
  H     -105.100    -324.219     211.940

 6  7  8  9  10  11  12  13  14  15  26  29  33  34 0
 6-311+G(2d,p)
 ****
 36  38  39  40  41 0
 6-311+G(2d,p)
 ****
 1  2  3  4  5  16  17  18  19  20  21  22  23  24  25 0
 3-21G
 ****
 27  28  30  31  32  35  37  42  43  44  45  46  47 0
 3-21G
 ****
 48  49 0
 3-21G
 ****


