%nproc=1
%NoSave
%Mem=1900MB
#P OB98/GEN NMR

erre ene a

0 1
  C       34.567     224.479    -256.737
  O       33.780     223.686    -255.872
  H       35.163     223.819    -257.373
  H       35.243     225.109    -256.157
  H       33.933     225.101    -257.376
  P       32.661     224.398    -254.973
  C       31.516     222.088    -254.936
  O       31.890     223.235    -254.184
  C       30.410     221.326    -254.209
  O       30.906     220.803    -252.958
  C       29.201     222.182    -253.848
  O       28.393     222.428    -254.987
  C       28.551     221.317    -252.778
  O       27.789     220.254    -253.369
  C       29.791     220.762    -252.036
  N       30.103     221.489    -250.809
  C       29.461     221.057    -249.651
  O       28.641     220.139    -249.643
  N       29.782     221.731    -248.503
  C       30.597     222.823    -248.413
  O       30.808     223.423    -247.365
  C       31.220     223.256    -249.672
  C       30.949     222.580    -250.793
  O       31.776     225.368    -255.684
  O       33.509     225.113    -253.816
  H       27.427     219.727    -252.630
  H       33.606     226.060    -254.018
  H       29.315     221.440    -247.656
  H       31.868     224.124    -249.643
  H       31.397     222.893    -251.731
  H       29.639     219.707    -251.779
  H       27.866     221.879    -252.143
  H       29.524     223.123    -253.391
  H       30.112     220.476    -254.834
  H       32.389     221.440    -255.050
  H       31.178     222.408    -255.928
  P       26.985     223.168    -254.849
  C       27.886     225.143    -256.205
  O       26.847     224.181    -256.087
  O       26.712     223.778    -253.513
  O       25.915     222.029    -255.190
  H       25.471     221.735    -254.372
  H       27.701     225.765    -257.056
  H       28.824     224.642    -256.326
  H       27.916     225.746    -255.322

 6  7  8  9  10  11  12  13  14  15  16  26  31  32  33  34  35 0
 6-311+G(2d,p)
 ****
 36  37 0
 6-311+G(2d,p)
 ****
 1  2  3  4  5  17  18  19  20  21  22  23  24  25 0
 3-21G
 ****
 27  28  29  30  38  39  40  41  42  43  44  45 0
 3-21G
 ****


