%nproc=1
%NoSave
%Mem=1900MB
#P OB98/GEN NMR

erre ene a

0 1
  C     -190.503     554.595     397.325
  O     -191.418     553.534     397.512
  H     -189.988     554.449     396.368
  H     -189.759     554.588     398.123
  H     -191.021     555.555     397.302
  P     -192.424     553.661     398.754
  C     -194.245     552.841     397.097
  O     -193.699     552.753     398.404
  C     -195.528     552.021     397.005
  O     -195.216     550.620     396.831
  C     -196.419     552.110     398.240
  O     -197.234     553.275     398.220
  C     -197.255     550.852     398.068
  O     -198.271     551.076     397.068
  C     -196.216     549.849     397.555
  N     -196.183     545.476     400.124
  C     -197.029     545.908     399.116
  N     -198.007     545.059     398.747
  N     -196.923     547.072     398.526
  C     -195.902     547.822     399.007
  C     -194.996     547.504     399.998
  C     -195.122     546.215     400.635
  O     -194.388     545.774     401.515
  N     -194.099     548.517     400.200
  C     -194.467     549.457     399.348
  N     -195.561     549.087     398.607
  O     -192.989     555.155     398.621
  O     -191.813     553.431     400.098
  H     -198.870     551.755     397.423
  H     -193.118     555.524     399.518
  H     -196.316     544.577     400.552
  H     -193.977     550.412     399.231
  H     -196.643     549.121     396.856
  H     -197.771     550.561     398.986
  H     -198.173     544.172     399.194
  H     -195.834     552.037     399.162
  H     -198.616     545.341     397.989
  H     -196.071     552.350     396.111
  H     -193.516     552.457     396.377
  H     -194.451     553.892     396.869
  P     -197.418     554.073     399.602
  C     -197.409     556.510     398.707
  O     -198.185     555.429     399.220
  O     -195.932     554.565     399.936
  O     -198.010     553.276     400.716
  H     -195.845     554.739     400.893
  H     -198.050     557.341     398.498
  H     -196.920     556.202     397.807
  H     -196.676     556.798     399.431

 6  7  8  9  10  11  12  13  14  15  26  29  33  34 0
 6-311+G(2d,p)
 ****
 36  38  39  40  41 0
 6-311+G(2d,p)
 ****
 1  2  3  4  5  16  17  18  19  20  21  22  23  24  25 0
 3-21G
 ****
 27  28  30  31  32  35  37  42  43  44  45  46  47 0
 3-21G
 ****
 48  49 0
 3-21G
 ****


