%nproc=1
%NoSave
%Mem=1900MB
#P OB98/GEN NMR

erre ene a

0 1
  C      394.237    -183.046      80.048
  O      394.179    -183.669      81.338
  P      393.255    -183.118      82.530
  C      390.996    -184.089      81.745
  O      392.014    -184.110      82.742
  C      389.605    -183.929      82.362
  O      388.714    -183.260      81.445
  C      388.909    -185.235      82.719
  O      389.449    -185.798      83.903
  C      387.457    -184.774      82.831
  O      387.201    -184.193      84.123
  C      387.373    -183.708      81.722
  N      386.716    -184.200      80.522
  C      385.319    -184.143      80.501
  O      384.696    -183.743      81.488
  N      384.656    -184.562      79.370
  C      385.325    -185.062      78.382
  N      384.617    -185.452      77.284
  C      386.790    -185.225      78.394
  C      387.415    -184.777      79.483
  O      392.868    -181.682      82.383
  O      394.128    -183.327      83.861
  H      386.360    -183.708      84.045
  H      393.901    -182.629      84.503
  H      387.306    -185.677      77.560
  H      388.494    -184.851      79.575
  H      386.830    -182.825      82.080
  H      386.742    -185.593      82.702
  H      389.000    -185.942      81.885
  H      389.705    -183.293      83.253
  H      383.616    -185.320      77.306
  H      391.041    -185.033      81.193
  H      385.042    -185.854      76.460
  H      391.203    -183.266      81.052
  P      390.227    -187.197      83.840
  C      392.770    -187.091      83.508
  O      391.697    -186.960      84.424
  O      390.168    -187.907      82.523
  O      389.530    -188.070      84.991
  H      389.546    -189.010      84.729
  H      393.630    -186.537      83.889
  H      392.498    -186.700      82.522
  H      393.041    -188.149      83.415
  H      394.916    -183.586      79.421
  H      394.576    -182.037      80.154
  H      393.263    -183.051      79.606

 3  4  5  6  7  8  9  10  11  12  13  23  27  28  29  30  32 0
 6-311+G(2d,p)
 ****
 34  35 0
 6-311+G(2d,p)
 ****
 1  2  14  15  16  17  18  19  20  21  22  24  25  26 0
 3-21G
 ****
 31  33  36  37  38  39  40  41  42  43  44  45  46 0
 3-21G
 ****


