%nproc=1
%NoSave
%Mem=1900MB
#P OB98/GEN NMR

erre ene a

0 1
  C     -148.419    -766.333     -19.167
  O     -148.099    -765.611     -20.358
  P     -149.214    -765.507     -21.507
  C     -150.232    -763.167     -20.800
  O     -149.585    -763.970     -21.754
  C     -149.962    -761.684     -21.106
  O     -148.594    -761.354     -20.806
  C     -150.189    -761.324     -22.575
  O     -151.561    -760.988     -22.825
  C     -149.243    -760.156     -22.772
  O     -149.797    -758.947     -22.193
  C     -148.024    -760.633     -21.953
  N     -147.029    -761.502     -22.612
  C     -146.358    -761.059     -23.749
  O     -146.533    -759.954     -24.268
  N     -145.437    -761.925     -24.297
  C     -145.006    -763.098     -23.733
  O     -144.146    -763.803     -24.235
  C     -145.634    -763.441     -22.450
  C     -146.602    -762.657     -21.964
  O     -150.523    -766.107     -20.829
  O     -148.844    -766.217     -22.770
  H     -150.204    -759.203     -21.358
  H     -150.788    -766.928     -21.287
  H     -145.004    -761.643     -25.156
  H     -145.293    -764.342     -21.951
  H     -147.069    -762.918     -21.011
  H     -147.467    -759.769     -21.546
  H     -149.072    -759.952     -23.822
  H     -149.871    -762.133     -23.226
  H     -150.600    -761.051     -20.467
  H     -149.894    -763.398     -19.788
  H     -151.313    -763.365     -20.833
  P     -152.172    -761.178     -24.292
  C     -154.229    -762.483     -23.482
  O     -153.758    -761.295     -24.087
  O     -151.537    -762.238     -25.124
  O     -152.010    -759.731     -24.962
  H     -151.194    -759.671     -25.501
  H     -155.278    -762.375     -23.252
  H     -153.670    -762.689     -22.549
  H     -154.086    -763.329     -24.174
  H     -147.581    -766.313     -18.502
  H     -148.652    -767.347     -19.416
  H     -149.263    -765.879     -18.691

 3  4  5  6  7  8  9  10  11  12  13  23  28  29  30  31  32 0
 6-311+G(2d,p)
 ****
 33  34 0
 6-311+G(2d,p)
 ****
 1  2  14  15  16  17  18  19  20  21  22  24  25  26  27 0
 3-21G
 ****
 35  36  37  38  39  40  41  42  43  44  45 0
 3-21G
 ****


