%nproc=1
%NoSave
%Mem=1900MB
#P OB98/GEN NMR

erre ene a

0 1
  C       92.237     719.342      75.487
  O       92.255     717.943      75.670
  H       91.895     719.552      74.469
  H       93.241     719.745      75.606
  H       91.554     719.825      76.188
  P       92.431     717.359      77.156
  C       90.447     715.770      77.578
  O       90.955     717.088      77.718
  C       89.780     715.297      78.871
  O       90.817     715.008      79.859
  C       88.833     716.326      79.494
  O       87.805     715.612      80.182
  C       89.739     717.023      80.495
  O       89.002     717.734      81.466
  C       90.553     715.831      81.014
  N       91.783     716.245      81.687
  C       91.703     716.474      83.056
  O       90.644     716.376      83.687
  N       92.853     716.871      83.671
  C       94.052     717.109      83.058
  O       95.042     717.492      83.659
  C       94.073     716.888      81.598
  C       92.952     716.473      80.994
  O       93.309     718.161      78.063
  O       93.001     715.879      76.937
  H       88.492     718.461      81.039
  H       93.565     715.620      77.686
  H       92.807     717.033      84.671
  H       94.995     717.081      81.081
  H       92.940     716.301      79.923
  H       89.967     715.236      81.722
  H       90.388     717.745      79.990
  H       88.405     717.016      78.771
  H       89.260     714.347      78.674
  H       91.287     715.108      77.329
  H       89.721     715.739      76.761
  P       86.276     715.610      79.678
  C       86.584     713.288      78.609
  O       86.143     714.629      78.422
  O       85.705     716.976      79.463
  O       85.468     714.837      80.830
  H       84.547     715.159      80.861
  H       86.444     712.737      77.703
  H       86.018     712.833      79.395
  H       87.622     713.287      78.870

 6  7  8  9  10  11  12  13  14  15  16  26  31  32  33  34  35 0
 6-311+G(2d,p)
 ****
 36  37 0
 6-311+G(2d,p)
 ****
 1  2  3  4  5  17  18  19  20  21  22  23  24  25 0
 3-21G
 ****
 27  28  29  30  38  39  40  41  42  43  44  45 0
 3-21G
 ****


