%nproc=1
%NoSave
%Mem=1900MB
#P OB98/GEN NMR

erre ene a

0 1
  C      340.578    -177.440     165.358
  O      341.971    -177.517     165.050
  P      342.973    -176.429     165.670
  C      342.779    -174.375     164.123
  O      342.403    -174.959     165.360
  C      342.130    -172.995     163.943
  O      342.683    -172.063     164.909
  C      342.344    -172.406     162.542
  O      341.134    -171.961     161.928
  C      343.409    -171.342     162.763
  O      343.395    -170.333     161.765
  C      343.142    -170.893     164.207
  N      344.333    -170.301     164.821
  C      344.451    -168.921     164.742
  O      343.661    -168.206     164.127
  N      345.554    -168.376     165.348
  C      346.565    -169.075     165.938
  O      347.558    -168.546     166.427
  C      346.418    -170.540     165.936
  C      345.322    -171.075     165.387
  O      344.418    -176.624     165.357
  O      342.712    -176.569     167.250
  H      342.465    -170.048     161.625
  H      343.573    -176.470     167.704
  H      345.646    -167.374     165.314
  H      347.209    -171.126     166.373
  H      345.191    -172.147     165.356
  H      342.348    -170.138     164.242
  H      344.392    -171.824     162.723
  H      342.729    -173.159     161.848
  H      341.060    -173.107     164.150
  H      342.460    -175.025     163.304
  H      343.870    -174.319     164.064
  P      340.123    -172.905     161.129
  C      341.657    -172.883     159.038
  O      340.944    -173.662     159.980
  O      338.853    -172.265     160.674
  O      339.806    -174.069     162.186
  H      338.860    -174.301     162.133
  H      341.836    -173.492     158.149
  H      342.622    -172.591     159.465
  H      341.092    -171.992     158.748
  H      340.059    -178.236     164.866
  H      340.190    -176.501     165.023
  H      340.441    -177.526     166.416

 3  4  5  6  7  8  9  10  11  12  13  23  28  29  30  31  32 0
 6-311+G(2d,p)
 ****
 33  34 0
 6-311+G(2d,p)
 ****
 1  2  14  15  16  17  18  19  20  21  22  24  25  26  27 0
 3-21G
 ****
 35  36  37  38  39  40  41  42  43  44  45 0
 3-21G
 ****


