%nproc=1
%NoSave
%Mem=1900MB
#P OB98/GEN NMR

erre ene a

0 1
  C       -5.177     -54.937     -41.082
  O       -4.018     -55.643     -41.489
  P       -2.786     -54.811     -42.091
  C       -3.700     -54.961     -44.550
  O       -3.305     -54.151     -43.458
  C       -4.234     -54.091     -45.692
  O       -5.429     -53.399     -45.237
  C       -3.249     -53.026     -46.193
  O       -3.452     -52.893     -47.606
  C       -3.709     -51.774     -45.467
  O       -3.291     -50.582     -46.113
  C       -5.227     -51.989     -45.461
  N       -5.922     -51.203     -44.441
  C       -7.210     -50.759     -44.728
  O       -7.787     -50.973     -45.792
  N       -7.818     -50.024     -43.742
  C       -7.256     -49.641     -42.560
  O       -7.841     -48.966     -41.721
  C       -5.877     -50.096     -42.334
  C       -5.288     -50.851     -43.264
  O       -1.819     -55.991     -42.569
  O       -2.180     -53.851     -41.123
  H       -2.302     -56.762     -42.914
  H       -2.318     -50.544     -46.077
  H       -8.767     -49.725     -43.913
  H       -5.390     -49.800     -41.413
  H       -4.271     -51.198     -43.120
  H       -5.642     -51.758     -46.449
  H       -3.301     -51.772     -44.450
  H       -2.208     -53.290     -45.990
  H       -4.535     -54.752     -46.515
  H       -4.487     -55.648     -44.227
  H       -2.846     -55.561     -44.882
  P       -2.183     -52.518     -48.524
  C       -2.705     -49.956     -48.372
  O       -1.781     -51.005     -48.187
  O       -2.898     -52.386     -49.955
  O       -1.082     -53.525     -48.517
  H       -3.700     -51.840     -49.928
  H       -2.377     -49.091     -47.789
  H       -3.706     -50.242     -48.039
  H       -2.736     -49.676     -49.429
  H       -5.902     -55.628     -40.706
  H       -5.586     -54.411     -41.919
  H       -4.918     -54.239     -40.314

 3  4  5  6  7  8  9  10  11  12  13  24  28  29  30  31  32 0
 6-311+G(2d,p)
 ****
 33  34 0
 6-311+G(2d,p)
 ****
 1  2  14  15  16  17  18  19  20  21  22  23  25  26  27 0
 3-21G
 ****
 35  36  37  38  39  40  41  42  43  44  45 0
 3-21G
 ****


