%nproc=1
%NoSave
%Mem=1900MB
#P OB98/GEN NMR

erre ene a

0 1
  C     -144.318      56.619     143.304
  O     -144.281      55.214     143.151
  H     -144.872      57.049     142.466
  H     -143.303      57.028     143.306
  H     -144.825      56.881     144.238
  P     -143.410      54.398     144.230
  C     -140.991      54.787     145.131
  O     -141.954      55.075     144.126
  C     -139.593      55.139     144.630
  O     -139.122      54.143     143.692
  C     -139.503      56.470     143.883
  O     -139.502      57.599     144.743
  C     -138.167      56.286     143.184
  O     -137.099      56.451     144.139
  C     -138.280      54.820     142.718
  N     -138.848      54.691     141.369
  C     -138.032      54.104     140.397
  O     -136.895      53.724     140.674
  N     -138.510      53.993     139.111
  C     -139.705      54.409     138.825
  N     -140.121      54.274     137.534
  C     -140.605      55.022     139.821
  C     -140.118      55.129     141.057
  O     -143.188      52.976     143.527
  O     -143.973      54.325     145.609
  H     -137.207      55.744     144.801
  H     -142.534      52.443     144.045
  H     -141.587      55.366     139.528
  H     -140.722      55.570     141.843
  H     -137.299      54.325     142.731
  H     -137.994      57.009     142.386
  H     -140.291      56.560     143.123
  H     -138.915      55.123     145.496
  H     -139.463      53.907     136.864
  H     -141.049      53.718     145.368
  H     -140.970      54.701     137.182
  H     -141.207      55.364     146.035
  P     -140.327      58.891     144.262
  C     -139.937      60.817     142.547
  O     -139.422      59.644     143.171
  O     -140.263      59.859     145.531
  O     -141.740      58.614     143.838
  H     -141.081      60.379     145.615
  H     -139.218      61.196     141.851
  H     -140.137      61.559     143.292
  H     -140.843      60.578     142.030

 6  7  8  9  10  11  12  13  14  15  16  26  30  31  32  33  35 0
 6-311+G(2d,p)
 ****
 37  38 0
 6-311+G(2d,p)
 ****
 1  2  3  4  5  17  18  19  20  21  22  23  24  25 0
 3-21G
 ****
 27  28  29  34  36  39  40  41  42  43  44  45  46 0
 3-21G
 ****


