%nproc=1
%NoSave
%Mem=1900MB
#P OB98/GEN NMR

erre ene a

0 1
  C     1094.477    -254.303     849.607
  O     1093.667    -253.167     849.394
  H     1094.598    -254.829     848.658
  H     1093.997    -254.973     850.325
  H     1095.463    -254.010     849.972
  P     1093.545    -252.113     850.594
  C     1093.996    -249.994     849.154
  O     1094.458    -250.852     850.190
  C     1094.871    -250.158     847.911
  O     1094.829    -251.557     847.500
  C     1094.416    -249.312     846.710
  O     1095.575    -248.879     846.004
  C     1093.657    -250.315     845.861
  O     1093.579    -249.958     844.484
  C     1094.483    -251.584     846.104
  N     1093.742    -252.805     845.776
  C     1093.901    -253.316     844.486
  O     1094.676    -252.873     843.646
  N     1093.117    -254.399     844.189
  C     1092.199    -254.982     845.013
  O     1091.511    -255.940     844.672
  C     1092.075    -254.397     846.349
  C     1092.837    -253.352     846.659
  O     1094.376    -252.811     851.771
  O     1092.152    -251.764     851.010
  H     1093.796    -253.377     852.306
  H     1092.786    -249.393     844.371
  H     1093.220    -254.781     843.261
  H     1091.351    -254.833     847.028
  H     1092.750    -252.875     847.639
  H     1095.411    -251.555     845.530
  H     1092.633    -250.439     846.236
  H     1093.795    -248.451     846.981
  H     1095.909    -249.935     848.175
  H     1094.059    -248.951     849.496
  H     1092.951    -250.229     848.928
  P     1095.962    -247.322     846.106
  C     1098.364    -247.665     847.104
  O     1097.023    -247.223     847.304
  O     1094.616    -246.704     846.716
  O     1096.391    -246.737     844.800
  H     1094.179    -247.312     847.341
  H     1098.924    -247.524     848.005
  H     1098.812    -247.100     846.313
  H     1098.362    -248.703     846.844

 6  7  8  9  10  11  12  13  14  15  16  27  31  32  33  34  35 0
 6-311+G(2d,p)
 ****
 36  37 0
 6-311+G(2d,p)
 ****
 1  2  3  4  5  17  18  19  20  21  22  23  24  25 0
 3-21G
 ****
 26  28  29  30  38  39  40  41  42  43  44  45 0
 3-21G
 ****


