%nproc=1
%NoSave
%Mem=1900MB
#P OB98/GEN NMR

erre ene a

0 1
  C     -240.293    -342.220    -429.544
  O     -240.769    -342.771    -430.772
  P     -241.943    -342.153    -431.661
  C     -244.446    -342.766    -432.204
  O     -243.271    -343.019    -431.437
  C     -245.584    -343.723    -431.798
  O     -245.269    -345.058    -432.312
  C     -245.733    -343.858    -430.266
  O     -247.094    -343.873    -429.837
  C     -244.889    -345.084    -429.956
  O     -245.214    -345.672    -428.697
  C     -245.119    -345.958    -431.191
  N     -242.328    -349.832    -429.362
  C     -243.274    -349.039    -428.710
  N     -243.481    -349.299    -427.407
  N     -243.917    -348.066    -429.295
  C     -243.554    -347.863    -430.580
  C     -242.631    -348.570    -431.325
  C     -241.951    -349.677    -430.682
  O     -241.122    -350.411    -431.218
  N     -242.537    -348.073    -432.600
  C     -243.382    -347.062    -432.636
  N     -244.026    -346.893    -431.422
  O     -241.585    -341.827    -433.079
  O     -242.282    -340.759    -430.922
  H     -246.094    -346.091    -428.780
  H     -242.569    -340.139    -431.627
  H     -241.879    -350.582    -428.861
  H     -243.578    -346.428    -433.484
  H     -246.013    -346.564    -431.105
  H     -243.843    -344.759    -429.895
  H     -242.922    -349.960    -426.858
  H     -245.300    -342.980    -429.765
  H     -244.000    -348.587    -426.882
  H     -246.510    -343.385    -432.273
  H     -244.170    -342.935    -433.246
  H     -244.755    -341.725    -432.103
  P     -247.845    -342.840    -428.863
  C     -247.707    -342.201    -426.388
  O     -247.507    -343.217    -427.349
  O     -249.396    -343.216    -428.998
  O     -247.624    -341.393    -429.210
  H     -249.897    -342.443    -429.361
  H     -247.203    -342.494    -425.457
  H     -248.778    -342.101    -426.193
  H     -247.306    -341.252    -426.733
  H     -239.504    -342.833    -429.160
  H     -241.094    -342.184    -428.835
  H     -239.924    -341.230    -429.716

 3  4  5  6  7  8  9  10  11  12  23  26  30  31 0
 6-311+G(2d,p)
 ****
 33  35  36  37  38 0
 6-311+G(2d,p)
 ****
 1  2  13  14  15  16  17  18  19  20  21  22  24  25 0
 3-21G
 ****
 27  28  29  32  34  39  40  41  42  43  44  45  46  47  48  49 0
 3-21G
 ****


