%nproc=1
%NoSave
%Mem=1900MB
#P OB98/GEN NMR

erre ene a

0 1
  C     -130.181    -221.806     374.475
  O     -129.521    -220.964     375.398
  H     -129.444    -222.206     373.772
  H     -130.931    -221.242     373.913
  H     -130.656    -222.639     374.998
  P     -130.442    -220.190     376.459
  C     -130.296    -219.673     379.003
  O     -129.766    -220.396     377.898
  C     -130.094    -220.478     380.283
  O     -130.998    -221.608     380.300
  C     -128.701    -221.074     380.428
  O     -127.744    -220.128     380.874
  C     -128.959    -222.159     381.458
  O     -128.913    -221.646     382.796
  C     -130.375    -222.638     381.093
  N     -130.352    -223.925     380.401
  C     -130.635    -225.039     381.186
  O     -130.894    -224.972     382.388
  N     -130.576    -226.248     380.551
  C     -130.216    -226.452     379.252
  O     -130.126    -227.570     378.760
  C     -129.908    -225.241     378.474
  C     -129.985    -224.050     379.074
  O     -131.761    -221.092     376.523
  O     -130.748    -218.771     376.109
  H     -132.490    -220.644     376.056
  H     -129.207    -222.378     383.375
  H     -130.778    -227.068     381.102
  H     -129.617    -225.365     377.437
  H     -129.753    -223.143     378.527
  H     -130.988    -222.751     381.998
  H     -128.211    -222.947     381.390
  H     -128.387    -221.542     379.487
  H     -130.328    -219.833     381.142
  H     -131.368    -219.505     378.855
  H     -129.795    -218.701     379.064
  P     -126.319    -220.680     381.368
  C     -124.275    -219.370     382.386
  O     -125.367    -219.396     381.480
  O     -125.825    -221.438     380.047
  O     -126.409    -221.529     382.590
  H     -126.214    -221.053     379.241
  H     -123.769    -218.431     382.308
  H     -123.596    -220.162     382.149
  H     -124.637    -219.498     383.385

 6  7  8  9  10  11  12  13  14  15  16  27  31  32  33  34  35 0
 6-311+G(2d,p)
 ****
 36  37 0
 6-311+G(2d,p)
 ****
 1  2  3  4  5  17  18  19  20  21  22  23  24  25 0
 3-21G
 ****
 26  28  29  30  38  39  40  41  42  43  44  45 0
 3-21G
 ****


