%nproc=1
%NoSave
%Mem=1900MB
#P OB98/GEN NMR

erre ene a

0 1
  C      149.887     560.304     232.158
  O      149.655     560.341     230.766
  P      150.686     561.113     229.815
  C      151.725     563.461     229.657
  O      150.876     562.596     230.398
  C      151.011     564.776     229.329
  O      150.393     565.320     230.524
  C      151.938     565.874     228.814
  O      152.288     565.650     227.463
  C      151.092     567.107     229.050
  O      150.129     567.279     227.994
  C      150.355     566.749     230.371
  N      151.814     571.214     232.404
  C      151.381     570.879     231.150
  N      151.063     569.659     230.687
  C      151.236     568.707     231.631
  C      151.689     568.903     232.936
  C      151.963     570.219     233.317
  N      152.333     570.580     234.600
  N      151.748     567.690     233.600
  C      151.349     566.782     232.702
  N      150.961     567.379     231.531
  O      150.389     561.037     228.337
  O      152.092     560.424     230.142
  H      149.515     567.993     228.275
  H      152.461     560.017     229.326
  H      151.293     571.698     230.447
  H      151.307     565.719     232.874
  H      149.298     567.042     230.339
  H      151.676     568.031     229.104
  H      152.831     565.929     229.444
  H      150.227     564.562     228.594
  H      152.017     562.964     228.722
  H      152.363     571.577     234.794
  H      152.158     569.924     235.358
  H      152.637     563.651     230.250
  P      153.556     566.395     226.828
  C      154.203     568.866     226.517
  O      153.134     567.935     226.628
  O      154.181     565.729     225.644
  O      154.602     566.470     228.063
  H      155.512     566.409     227.711
  H      154.616     569.065     227.511
  H      153.827     569.794     226.084
  H      154.996     568.468     225.865
  H      149.105     559.751     232.635
  H      149.904     561.302     232.543
  H      150.827     559.831     232.350

 3  4  5  6  7  8  9  10  11  12  22  25  29  30  31  32 0
 6-311+G(2d,p)
 ****
 33  36  37 0
 6-311+G(2d,p)
 ****
 1  2  13  14  15  16  17  18  19  20  21  23  24  26 0
 3-21G
 ****
 27  28  34  35  38  39  40  41  42  43  44  45  46  47  48 0
 3-21G
 ****


