%nproc=1
%NoSave
%Mem=1900MB
#P OB98/GEN NMR

erre ene a

0 1
  C     -886.710      40.963     419.250
  O     -888.100      41.069     419.443
  H     -886.300      41.965     419.103
  H     -886.490      40.366     418.364
  H     -886.230      40.525     420.126
  P     -888.940      39.743     419.786
  C     -890.400      41.210     421.304
  O     -890.390      40.228     420.289
  C     -891.690      41.125     422.134
  O     -892.780      41.659     421.349
  C     -892.060      39.689     422.537
  O     -892.620      39.713     423.853
  C     -893.140      39.306     421.534
  O     -894.030      38.319     422.046
  C     -893.810      40.662     421.281
  N     -898.300      40.473     418.973
  C     -898.000      40.490     420.320
  N     -899.030      40.431     421.183
  N     -896.760      40.566     420.783
  C     -895.840      40.642     419.806
  C     -896.010      40.628     418.438
  C     -897.370      40.529     417.942
  O     -897.700      40.488     416.756
  N     -894.810      40.684     417.781
  C     -893.900      40.736     418.736
  N     -894.480      40.695     419.987
  O     -888.260      38.772     420.692
  O     -889.250      39.100     418.353
  H     -893.490      37.536     422.285
  H     -888.630      38.364     418.165
  H     -899.260      40.404     418.675
  H     -892.830      40.790     418.592
  H     -894.580      40.895     422.031
  H     -892.670      38.924     420.618
  H     -900.000      40.392     420.898
  H     -891.210      39.000     422.507
  H     -898.830      40.464     422.180
  H     -891.580      41.764     423.017
  H     -890.340      42.202     420.833
  H     -889.530      41.071     421.958
  P     -891.630      39.601     425.108
  C     -893.570      39.981     426.765
  O     -892.480      39.142     426.375
  O     -890.720      40.772     425.337
  O     -890.780      38.274     424.759
  H     -889.890      38.364     425.154
  H     -894.054      39.562     427.623
  H     -894.271      40.053     425.960
  H     -893.201      40.956     427.005

 6  7  8  9  10  11  12  13  14  15  26  29  33  34 0
 6-311+G(2d,p)
 ****
 36  38  39  40  41 0
 6-311+G(2d,p)
 ****
 1  2  3  4  5  16  17  18  19  20  21  22  23  24  25 0
 3-21G
 ****
 27  28  30  31  32  35  37  42  43  44  45  46  47 0
 3-21G
 ****
 48  49 0
 3-21G
 ****


