%nproc=1
%NoSave
%Mem=1900MB
#P OB98/GEN NMR

erre ene a

0 1
  C      -12.221     -16.850     233.313
  O      -12.125     -18.052     232.571
  H      -12.219     -17.093     234.378
  H      -13.156     -16.338     233.069
  H      -11.371     -16.198     233.097
  P      -11.878     -17.898     230.997
  C       -9.276     -18.204     230.889
  O      -10.388     -17.324     230.800
  C       -7.980     -17.434     230.657
  O       -8.090     -16.582     229.500
  C       -7.615     -16.474     231.776
  O       -7.158     -17.137     232.934
  C       -6.541     -15.638     231.092
  O       -5.256     -16.267     231.162
  C       -7.048     -15.586     229.631
  N       -7.501     -14.258     229.265
  C       -6.486     -13.317     229.047
  O       -5.305     -13.647     229.152
  N       -6.840     -12.025     228.758
  C       -8.092     -11.693     228.715
  N       -8.374     -10.389     228.455
  C       -9.192     -12.653     228.939
  C       -8.829     -13.907     229.208
  O      -12.803     -16.648     230.622
  O      -12.157     -19.125     230.197
  H       -4.651     -15.714     230.626
  H      -12.685     -15.884     231.210
  H      -10.221     -12.330     228.880
  H       -9.571     -14.677     229.385
  H       -6.248     -15.878     228.937
  H       -6.440     -14.655     231.557
  H       -8.465     -15.818     232.003
  H       -7.177     -18.163     230.478
  H       -7.589      -9.754     228.363
  H       -9.370     -19.017     230.162
  H       -9.305     -10.001     228.476
  H       -9.283     -18.649     231.888
  P       -7.364     -16.507     234.391
  C       -9.506     -17.676     235.215
  O       -8.948     -16.487     234.666
  O       -6.685     -15.199     234.623
  O       -6.872     -17.679     235.365
  H       -7.363     -18.514     235.281
  H      -10.559     -17.545     235.353
  H       -9.045     -17.884     236.158
  H       -9.333     -18.493     234.546

 6  7  8  9  10  11  12  13  14  15  16  26  30  31  32  33  35 0
 6-311+G(2d,p)
 ****
 37  38 0
 6-311+G(2d,p)
 ****
 1  2  3  4  5  17  18  19  20  21  22  23  24  25 0
 3-21G
 ****
 27  28  29  34  36  39  40  41  42  43  44  45  46 0
 3-21G
 ****


