%nproc=1
%NoSave
%Mem=1900MB
#P OB98/GEN NMR

erre ene a

0 1
  C      -48.459    -824.792    -388.458
  O      -49.529    -824.617    -387.552
  H      -48.159    -825.842    -388.450
  H      -47.602    -824.179    -388.164
  H      -48.772    -824.525    -389.473
  P      -50.079    -823.135    -387.297
  C      -51.031    -821.403    -388.965
  O      -51.003    -822.761    -388.556
  C      -51.841    -821.235    -390.258
  O      -51.196    -821.990    -391.321
  C      -53.287    -821.758    -390.150
  O      -54.092    -820.978    -391.044
  C      -53.133    -823.176    -390.673
  O      -54.382    -823.749    -390.981
  C      -52.156    -822.937    -391.824
  N      -51.527    -824.168    -392.281
  C      -52.259    -824.946    -393.178
  O      -53.388    -824.587    -393.528
  N      -51.723    -826.124    -393.633
  C      -50.579    -826.526    -393.180
  N      -50.104    -827.707    -393.655
  C      -49.792    -825.758    -392.188
  C      -50.314    -824.596    -391.794
  O      -49.049    -822.112    -386.948
  O      -51.142    -823.315    -386.112
  H      -55.034    -823.578    -390.267
  H      -50.763    -822.989    -385.274
  H      -48.849    -826.144    -391.822
  H      -49.811    -823.971    -391.065
  H      -52.665    -822.469    -392.680
  H      -52.675    -823.818    -389.911
  H      -53.689    -821.704    -389.134
  H      -51.824    -820.182    -390.556
  H      -50.684    -828.202    -394.327
  H      -49.996    -821.084    -389.130
  H      -49.239    -828.125    -393.357
  H      -51.466    -820.779    -388.176
  P      -55.412    -820.203    -390.565
  C      -55.889    -817.930    -389.434
  O      -55.078    -818.648    -390.361
  O      -56.104    -820.836    -389.396
  O      -56.380    -820.202    -391.848
  H      -57.306    -820.223    -391.550
  H      -55.565    -816.911    -389.391
  H      -55.800    -818.374    -388.464
  H      -56.910    -817.966    -389.751

 6  7  8  9  10  11  12  13  14  15  16  26  30  31  32  33  35 0
 6-311+G(2d,p)
 ****
 37  38 0
 6-311+G(2d,p)
 ****
 1  2  3  4  5  17  18  19  20  21  22  23  24  25 0
 3-21G
 ****
 27  28  29  34  36  39  40  41  42  43  44  45  46 0
 3-21G
 ****


