%nproc=1
%NoSave
%Mem=1900MB
#P OB98/GEN NMR

erre ene a

0 1
  C     -396.603    -483.266    -336.871
  O     -396.224    -482.997    -338.203
  P     -395.398    -481.670    -338.563
  C     -393.196    -482.993    -338.314
  O     -393.954    -481.868    -337.879
  C     -392.200    -482.575    -339.414
  O     -391.399    -481.468    -338.967
  C     -391.225    -483.676    -339.795
  O     -391.844    -484.637    -340.633
  C     -390.124    -482.861    -340.480
  O     -390.463    -482.570    -341.842
  C     -390.114    -481.570    -339.633
  N     -389.018    -481.531    -338.676
  C     -387.751    -481.268    -339.218
  O     -387.612    -481.110    -340.425
  N     -386.669    -481.228    -338.368
  C     -386.846    -481.462    -337.100
  N     -385.729    -481.425    -336.317
  C     -388.153    -481.784    -336.499
  C     -389.187    -481.792    -337.344
  O     -396.082    -480.391    -338.236
  O     -395.075    -481.853    -340.119
  H     -389.715    -482.048    -342.202
  H     -395.877    -481.688    -340.679
  H     -388.242    -481.973    -335.435
  H     -390.185    -482.019    -336.987
  H     -390.044    -480.691    -340.281
  H     -389.164    -483.384    -340.484
  H     -390.822    -484.151    -338.895
  H     -392.783    -482.266    -340.289
  H     -384.845    -481.239    -336.764
  H     -393.886    -483.743    -338.721
  H     -385.746    -481.623    -335.323
  H     -392.669    -483.432    -337.467
  P     -391.057    -485.977    -341.024
  C     -392.644    -487.824    -340.211
  O     -391.451    -487.103    -339.956
  O     -389.599    -485.821    -341.268
  O     -391.804    -486.471    -342.361
  H     -391.136    -486.752    -343.015
  H     -392.634    -488.744    -339.620
  H     -392.744    -488.068    -341.271
  H     -393.507    -487.221    -339.893
  H     -397.142    -484.189    -336.833
  H     -397.226    -482.474    -336.511
  H     -395.728    -483.338    -336.259

 3  4  5  6  7  8  9  10  11  12  13  23  27  28  29  30  32 0
 6-311+G(2d,p)
 ****
 34  35 0
 6-311+G(2d,p)
 ****
 1  2  14  15  16  17  18  19  20  21  22  24  25  26 0
 3-21G
 ****
 31  33  36  37  38  39  40  41  42  43  44  45  46 0
 3-21G
 ****


