%nproc=1
%NoSave
%Mem=1900MB
#P OB98/GEN NMR

erre ene a

0 1
  C     -309.074      19.989    -530.605
  O     -308.852      19.921    -531.998
  H     -310.002      20.538    -530.422
  H     -308.251      20.523    -530.123
  H     -309.170      18.984    -530.181
  P     -307.673      18.961    -532.510
  C     -309.299      17.287    -533.655
  O     -308.310      17.496    -532.660
  C     -310.067      15.998    -533.368
  O     -310.953      16.227    -532.235
  C     -310.934      15.514    -534.542
  O     -310.910      14.081    -534.557
  C     -312.327      15.984    -534.155
  O     -313.372      15.249    -534.772
  C     -312.277      15.812    -532.634
  N     -313.302      16.594    -531.947
  C     -314.411      15.904    -531.457
  O     -314.546      14.684    -531.486
  N     -315.400      16.685    -530.912
  C     -315.393      18.050    -530.832
  O     -316.318      18.695    -530.350
  C     -314.204      18.719    -531.372
  C     -313.229      17.971    -531.896
  O     -306.734      18.831    -531.223
  O     -306.932      19.443    -533.714
  H     -306.059      19.536    -531.218
  H     -314.213      15.534    -534.360
  H     -316.209      16.206    -530.557
  H     -314.168      19.799    -531.333
  H     -312.345      18.438    -532.321
  H     -312.380      14.752    -532.365
  H     -312.448      17.041    -534.426
  H     -310.623      15.898    -535.517
  H     -309.352      15.223    -533.065
  H     -308.815      17.207    -534.634
  H     -309.982      18.145    -533.669
  P     -309.606      13.372    -535.168
  C     -308.866      12.410    -532.848
  O     -308.568      13.255    -533.949
  O     -309.017      14.545    -536.082
  O     -309.916      12.101    -535.888
  H     -309.153      15.427    -535.701
  H     -308.068      12.457    -532.136
  H     -308.979      11.403    -533.192
  H     -309.775      12.733    -532.386

 6  7  8  9  10  11  12  13  14  15  16  27  31  32  33  34  35 0
 6-311+G(2d,p)
 ****
 36  37 0
 6-311+G(2d,p)
 ****
 1  2  3  4  5  17  18  19  20  21  22  23  24  25 0
 3-21G
 ****
 26  28  29  30  38  39  40  41  42  43  44  45 0
 3-21G
 ****


