%nproc=1
%NoSave
%Mem=1900MB
#P OB98/GEN NMR

erre ene a

0 1
  C      556.833    -361.302    -541.478
  O      556.186    -360.353    -540.669
  P      555.491    -360.718    -539.267
  C      552.889    -360.690    -539.401
  O      554.096    -361.449    -539.572
  C      552.540    -359.847    -540.633
  O      552.546    -360.677    -541.809
  C      551.121    -359.293    -540.498
  O      550.873    -358.116    -539.766
  C      550.566    -359.286    -541.929
  O      550.641    -358.008    -542.542
  C      551.455    -360.295    -542.658
  N      547.632    -362.176    -545.401
  C      548.195    -360.914    -545.454
  N      547.530    -359.993    -546.189
  N      549.293    -360.588    -544.810
  C      549.783    -361.601    -544.049
  C      549.328    -362.882    -543.938
  C      548.140    -363.237    -544.674
  O      547.556    -364.318    -544.596
  N      550.038    -363.598    -543.010
  C      550.912    -362.736    -542.526
  N      550.760    -361.492    -543.097
  O      555.549    -359.668    -538.202
  O      556.415    -361.952    -538.777
  H      550.507    -358.105    -543.502
  H      556.482    -361.894    -537.808
  H      546.738    -362.343    -545.859
  H      551.623    -362.939    -541.743
  H      551.900    -359.838    -543.558
  H      549.503    -359.561    -541.929
  H      546.614    -360.167    -546.566
  H      550.526    -360.056    -539.975
  H      547.825    -359.027    -546.112
  H      553.297    -359.071    -540.815
  H      553.036    -360.052    -538.516
  H      552.069    -361.364    -539.186
  P      549.506    -357.705    -539.047
  C      548.116    -355.959    -540.299
  O      548.430    -357.333    -540.173
  O      549.816    -356.292    -538.360
  O      549.028    -358.673    -538.015
  H      549.191    -356.128    -537.627
  H      547.194    -355.850    -540.865
  H      548.932    -355.456    -540.848
  H      548.004    -355.483    -539.319
  H      557.214    -360.822    -542.355
  H      556.136    -362.063    -541.762
  H      557.641    -361.744    -540.933

 3  4  5  6  7  8  9  10  11  12  23  26  30  31 0
 6-311+G(2d,p)
 ****
 33  35  36  37  38 0
 6-311+G(2d,p)
 ****
 1  2  13  14  15  16  17  18  19  20  21  22  24  25 0
 3-21G
 ****
 27  28  29  32  34  39  40  41  42  43  44  45  46  47  48  49 0
 3-21G
 ****


