%nproc=1
%NoSave
%Mem=1900MB
#P OB98/GEN NMR

erre ene a

0 1
  C     1131.407    -898.507     704.113
  O     1132.471    -897.717     704.633
  H     1131.793    -899.117     703.299
  H     1130.630    -897.837     703.700
  H     1130.963    -899.137     704.877
  P     1132.308    -897.067     706.085
  C     1134.846    -896.617     706.131
  O     1133.531    -896.057     706.328
  C     1135.688    -895.687     705.242
  O     1135.644    -894.327     705.752
  C     1137.189    -896.097     705.238
  O     1137.526    -897.087     704.270
  C     1137.864    -894.757     704.935
  O     1137.988    -894.547     703.510
  C     1136.926    -893.737     705.559
  N     1140.456    -890.947     707.992
  C     1140.468    -891.387     706.651
  N     1141.555    -891.077     705.944
  N     1139.473    -892.087     706.161
  C     1138.523    -892.407     707.035
  C     1138.427    -892.037     708.351
  C     1139.453    -891.217     708.931
  O     1139.525    -890.767     710.072
  N     1137.314    -892.587     708.972
  C     1136.783    -893.337     708.044
  N     1137.441    -893.197     706.821
  O     1132.650    -898.277     707.072
  O     1130.945    -896.497     706.377
  H     1138.445    -895.317     703.144
  H     1132.134    -898.177     707.893
  H     1141.234    -890.387     708.332
  H     1135.918    -893.977     708.146
  H     1136.791    -892.867     704.888
  H     1138.871    -894.737     705.342
  H     1142.376    -890.607     706.313
  H     1137.513    -896.437     706.246
  H     1141.674    -891.537     705.043
  H     1135.297    -895.667     704.224
  H     1134.704    -897.567     705.641
  H     1135.345    -896.767     707.089
  P     1138.457    -898.297     704.641
  C     1137.723    -899.417     702.384
  O     1138.751    -899.157     703.315
  O     1137.515    -899.287     705.502
  O     1139.730    -897.937     705.391
  H     1137.671    -899.147     706.448
  H     1138.113    -900.000     701.576
  H     1137.342    -898.492     702.005
  H     1136.934    -899.957     702.865

 6  7  8  9  10  11  12  13  14  15  26  29  33  34 0
 6-311+G(2d,p)
 ****
 36  38  39  40  41 0
 6-311+G(2d,p)
 ****
 1  2  3  4  5  16  17  18  19  20  21  22  23  24  25 0
 3-21G
 ****
 27  28  30  31  32  35  37  42  43  44  45  46  47 0
 3-21G
 ****
 48  49 0
 3-21G
 ****


