%nproc=1
%NoSave
%Mem=1900MB
#P OB98/GEN NMR

erre ene a

0 1
  C      117.723     -29.440     -31.528
  O      116.984     -28.361     -32.068
  P      117.738     -27.053     -32.604
  C      119.106     -25.203     -31.457
  O      117.976     -26.065     -31.363
  C      118.886     -23.943     -30.623
  O      117.854     -23.115     -31.203
  C      118.422     -24.213     -29.200
  O      119.462     -24.723     -28.388
  C      117.901     -22.838     -28.797
  O      118.982     -21.979     -28.404
  C      117.276     -22.345     -30.120
  N      115.824     -22.435     -30.117
  C      115.133     -21.238     -29.905
  O      115.746     -20.198     -29.657
  N      113.761     -21.254     -29.976
  C      113.136     -22.380     -30.117
  N      111.780     -22.326     -30.240
  C      113.827     -23.685     -30.178
  C      115.158     -23.636     -30.197
  O      117.125     -26.414     -33.806
  O      119.221     -27.567     -32.931
  H      119.464     -27.276     -33.831
  H      119.271     -22.284     -27.521
  H      113.256     -24.600     -30.227
  H      115.748     -24.545     -30.264
  H      117.565     -21.302     -30.309
  H      117.202     -22.887     -27.957
  H      117.589     -24.927     -29.216
  H      119.825     -23.371     -30.619
  H      111.343     -21.413     -30.210
  H      119.251     -24.929     -32.506
  H      111.243     -23.076     -30.666
  H      119.997     -25.742     -31.115
  P      119.121     -26.012     -27.499
  C      117.506     -26.404     -25.513
  O      118.364     -25.503     -26.183
  O      120.559     -26.473     -26.954
  O      118.443     -27.118     -28.238
  H      120.597     -27.447     -26.912
  H      117.350     -26.047     -24.492
  H      117.933     -27.411     -25.475
  H      116.539     -26.438     -26.024
  H      117.052     -30.216     -31.226
  H      118.281     -29.101     -30.680
  H      118.395     -29.818     -32.269

 3  4  5  6  7  8  9  10  11  12  13  24  27  28  29  30  32 0
 6-311+G(2d,p)
 ****
 34  35 0
 6-311+G(2d,p)
 ****
 1  2  14  15  16  17  18  19  20  21  22  23  25  26 0
 3-21G
 ****
 31  33  36  37  38  39  40  41  42  43  44  45  46 0
 3-21G
 ****


