%nproc=1
%NoSave
%Mem=1900MB
#P OB98/GEN NMR

erre ene a

0 1
  C       -8.217    -157.324      92.253
  O       -8.566    -156.206      93.039
  H       -9.108    -157.671      91.724
  H       -7.855    -158.129      92.899
  H       -7.448    -157.072      91.518
  P       -7.404    -155.239      93.562
  C       -5.425    -155.423      95.208
  O       -6.380    -156.127      94.424
  C       -4.706    -156.343      96.194
  O       -5.661    -156.978      97.072
  C       -3.959    -157.477      95.492
  O       -2.664    -157.150      95.020
  C       -3.889    -158.532      96.592
  O       -2.756    -158.309      97.446
  C       -5.193    -158.307      97.360
  N       -7.786    -162.480      98.759
  C       -6.738    -161.852      99.402
  N       -6.288    -162.446     100.529
  N       -6.177    -160.757      98.964
  C       -6.669    -160.331      97.777
  C       -7.695    -160.878      97.039
  C       -8.346    -162.062      97.561
  O       -9.275    -162.660      97.026
  N       -7.919    -160.168      95.885
  C       -6.981    -159.241      95.888
  N       -6.215    -159.284      97.029
  O       -8.127    -154.357      94.689
  O       -6.775    -154.369      92.517
  H       -1.948    -158.540      96.953
  H       -7.675    -153.498      94.779
  H       -8.198    -163.306      99.156
  H       -6.832    -158.502      95.108
  H       -5.035    -158.363      98.444
  H       -3.780    -159.540      96.179
  H       -6.609    -163.350     100.839
  H       -4.560    -157.877      94.669
  H       -5.366    -162.173     100.876
  H       -4.035    -155.746      96.823
  H       -5.972    -154.649      95.750
  H       -4.703    -154.916      94.561
  P       -2.130    -157.774      93.647
  C       -0.289    -159.501      93.011
  O       -1.056    -158.900      94.031
  O       -1.242    -156.590      93.041
  O       -3.193    -158.211      92.700
  H       -1.761    -156.075      92.396
  H        0.372    -160.224      93.441
  H        0.283    -158.751      92.506
  H       -0.940    -159.984      92.312

 6  7  8  9  10  11  12  13  14  15  26  29  33  34 0
 6-311+G(2d,p)
 ****
 36  38  39  40  41 0
 6-311+G(2d,p)
 ****
 1  2  3  4  5  16  17  18  19  20  21  22  23  24  25 0
 3-21G
 ****
 27  28  30  31  32  35  37  42  43  44  45  46  47 0
 3-21G
 ****
 48  49 0
 3-21G
 ****


