%nproc=1
%NoSave
%Mem=1900MB
#P OB98/GEN NMR

erre ene a

0 1
  C      -97.451    -757.704      17.840
  O      -97.511    -756.647      16.903
  H      -98.345    -758.313      17.734
  H      -97.422    -757.303      18.854
  H      -96.577    -758.331      17.660
  P      -96.297    -755.595      16.858
  C      -96.410    -755.449      14.272
  O      -95.640    -755.813      15.411
  C      -96.551    -756.633      13.325
  O      -97.291    -757.711      13.935
  C      -97.314    -756.346      12.033
  O      -96.574    -755.566      11.097
  C      -97.566    -757.749      11.545
  O      -96.356    -758.295      10.994
  C      -97.943    -758.457      12.878
  N      -99.393    -758.500      13.090
  C     -100.055    -759.657      12.626
  O      -99.432    -760.543      12.059
  N     -101.418    -759.740      12.795
  C     -102.077    -758.742      13.338
  N     -103.420    -758.880      13.480
  C     -101.407    -757.514      13.823
  C     -100.088    -757.464      13.665
  O      -95.343    -755.642      18.011
  O      -97.011    -754.170      16.678
  H      -96.566    -759.180      10.655
  H      -96.303    -753.475      16.656
  H     -101.997    -756.712      14.247
  H      -99.538    -756.589      14.001
  H      -97.546    -759.481      12.903
  H      -98.335    -757.811      10.777
  H      -98.277    -755.860      12.257
  H      -95.543    -757.003      13.122
  H     -103.843    -759.740      13.121
  H      -95.903    -754.607      13.774
  H     -104.017    -758.136      13.815
  H      -97.408    -755.116      14.582
  P      -96.952    -754.004      10.974
  C      -94.627    -753.023      10.303
  O      -95.608    -753.188      11.310
  O      -97.874    -753.749      12.250
  O      -97.607    -753.607       9.697
  H      -98.831    -753.783      11.991
  H      -93.805    -752.460      10.694
  H      -95.053    -752.501       9.472
  H      -94.281    -753.983       9.982

 6  7  8  9  10  11  12  13  14  15  16  26  30  31  32  33  35 0
 6-311+G(2d,p)
 ****
 37  38 0
 6-311+G(2d,p)
 ****
 1  2  3  4  5  17  18  19  20  21  22  23  24  25 0
 3-21G
 ****
 27  28  29  34  36  39  40  41  42  43  44  45  46 0
 3-21G
 ****


