%nproc=1
%NoSave
%Mem=1900MB
#P OB98/GEN NMR

erre ene a

0 1
  C      292.422     128.852     112.423
  O      291.650     129.782     111.645
  P      292.396     131.137     111.207
  C      290.449     132.565     112.163
  O      291.284     132.288     111.042
  C      289.008     132.090     111.926
  O      288.627     132.394     110.559
  C      288.787     130.591     112.139
  O      287.487     130.404     112.724
  C      288.722     130.043     110.720
  O      288.023     128.802     110.649
  C      288.041     131.200     110.002
  N      286.466     129.137     105.662
  C      285.938     129.014     106.936
  N      284.860     128.215     107.072
  N      286.438     129.630     107.984
  C      287.494     130.423     107.684
  C      288.095     130.628     106.466
  C      287.565     129.911     105.328
  O      288.011     129.931     104.178
  N      289.149     131.504     106.566
  C      289.193     131.826     107.849
  N      288.217     131.187     108.570
  O      292.856     130.824     109.696
  O      293.565     131.485     112.070
  H      287.104     128.971     110.941
  H      293.827     130.945     109.618
  H      286.051     128.622     104.901
  H      289.922     132.483     108.312
  H      286.962     131.222     110.219
  H      289.744     129.878     110.355
  H      284.387     127.766     106.309
  H      289.547     130.093     112.756
  H      284.437     128.151     108.000
  H      288.351     132.675     112.586
  H      290.447     133.640     112.352
  H      290.873     132.070     113.044
  P      287.420     130.427     114.335
  C      285.493     128.684     114.517
  O      285.912     130.019     114.716
  O      287.491     131.984     114.682
  O      288.500     129.641     115.001
  H      287.878     132.115     115.569
  H      286.320     128.012     114.285
  H      284.783     128.664     113.681
  H      284.991     128.338     115.421
  H      291.823     127.996     112.652
  H      292.736     129.322     113.332
  H      293.282     128.547     111.864

 3  4  5  6  7  8  9  10  11  12  23  26  30  31  33  0
 6-311+G(2d,p)
 ****
 35  36  37  38 0
 6-311+G(2d,p)
 ****
 1  2  13  14  15  16  17  18  19  20  21  22  24  25  27  28  29 0
 3-21G
 ****
 32  34  39  40  41  42  43  44  45  46  47  48  49 0
 3-21G
 ****


