%nproc=1
%NoSave
%Mem=1900MB
#P OB98/GEN NMR

erre ene a

0 1
  C      138.718     -26.948     108.002
  O      138.407     -28.229     107.484
  P      136.970     -28.857     107.808
  C      136.757     -30.016     105.491
  O      136.795     -30.168     106.901
  C      135.725     -30.967     104.880
  O      136.200     -32.341     105.010
  C      134.341     -30.897     105.544
  O      133.362     -31.140     104.524
  C      134.379     -32.069     106.504
  O      133.090     -32.497     106.915
  C      135.150     -33.088     105.657
  N      135.683     -34.196     106.446
  C      136.254     -35.258     105.751
  O      136.333     -35.316     104.526
  N      136.688     -36.306     106.518
  C      136.529     -36.435     107.867
  O      136.834     -37.453     108.479
  C      135.919     -35.283     108.547
  C      135.531     -34.233     107.818
  O      135.955     -27.806     107.156
  O      136.696     -29.071     109.259
  H      133.212     -33.174     107.605
  H      135.587     -27.217     107.842
  H      137.115     -37.080     106.033
  H      135.797     -35.343     109.621
  H      135.059     -33.379     108.292
  H      134.503     -33.484     104.863
  H      134.943     -31.788     107.401
  H      134.143     -29.944     106.043
  H      135.645     -30.752     103.807
  H      137.741     -30.243     105.079
  H      136.520     -28.976     105.240
  P      132.130     -30.116     104.406
  C      131.926     -30.260     101.805
  O      131.340     -30.497     103.067
  O      132.901     -28.764     104.029
  O      131.314     -30.012     105.654
  H      133.597     -28.903     103.366
  H      133.010     -30.397     101.831
  H      131.700     -29.238     101.488
  H      131.500     -30.957     101.080
  H      139.706     -26.671     107.699
  H      138.666     -26.973     109.070
  H      138.017     -26.232     107.627

 3  4  5  6  7  8  9  10  11  12  13  23  28  29  30  31  32 0
 6-311+G(2d,p)
 ****
 33  34 0
 6-311+G(2d,p)
 ****
 1  2  14  15  16  17  18  19  20  21  22  24  25  26 0
 3-21G
 ****
 27  35  36  37  38  39  40  41  42  43  44  45 0
 3-21G
 ****


