%nproc=1
%NoSave
%Mem=1900MB
#P OB98/GEN NMR

erre ene a

0 1
  C      428.019     320.004     160.713
  O      428.021     321.381     161.030
  H      428.793     319.815     159.966
  H      427.049     319.721     160.295
  H      428.231     319.406     161.602
  P      427.012     321.860     162.182
  C      426.033     324.012     161.115
  O      426.927     323.462     162.072
  C      426.404     325.458     160.799
  O      426.116     326.285     161.963
  C      427.886     325.667     160.442
  O      427.962     326.703     159.455
  C      428.471     326.206     161.738
  O      429.685     326.924     161.534
  C      427.303     327.058     162.229
  N      428.715     330.675     165.428
  C      428.667     330.667     164.047
  N      429.052     331.798     163.417
  N      428.271     329.641     163.343
  C      427.882     328.589     164.104
  C      427.887     328.468     165.473
  C      428.354     329.604     166.239
  O      428.438     329.664     167.462
  N      427.444     327.228     165.862
  C      427.170     326.605     164.729
  N      427.419     327.389     163.637
  O      427.863     321.619     163.516
  O      425.699     321.152     162.221
  H      429.468     327.753     161.057
  H      427.663     320.740     163.890
  H      429.042     331.488     165.921
  H      426.795     325.592     164.647
  H      427.223     328.009     161.687
  H      428.674     325.381     162.433
  H      429.323     332.644     163.896
  H      428.395     324.770     160.079
  H      428.981     331.829     162.408
  H      425.755     325.816     159.990
  H      425.016     323.983     161.522
  H      426.067     323.408     160.203
  P      428.763     326.395     158.103
  C      430.134     328.538     157.564
  O      428.962     327.778     157.316
  O      427.672     325.635     157.210
  O      429.992     325.571     158.291
  H      428.116     325.031     156.584
  H      430.117     329.425     156.966
  H      430.996     327.956     157.314
  H      430.173     328.806     158.599

 6  7  8  9  10  11  12  13  14  15  26  29  33  34 0
 6-311+G(2d,p)
 ****
 36  38  39  40  41 0
 6-311+G(2d,p)
 ****
 1  2  3  4  5  16  17  18  19  20  21  22  23  24  25 0
 3-21G
 ****
 27  28  30  31  32  35  37  42  43  44  45  46  47 0
 3-21G
 ****
 48  49 0
 3-21G
 ****


