%nproc=1
%NoSave
%Mem=1900MB
#P OB98/GEN NMR

erre ene a

0 1
  C      -31.339     240.635    -171.545
  O      -30.533     241.095    -170.464
  P      -29.066     240.559    -170.132
  C      -28.804     240.765    -167.530
  O      -28.546     241.310    -168.816
  C      -28.837     241.831    -166.418
  O      -27.695     242.717    -166.566
  C      -30.084     242.707    -166.551
  O      -31.316     242.274    -166.010
  C      -29.642     244.081    -166.070
  O      -29.927     244.292    -164.685
  C      -28.129     244.068    -166.307
  N      -25.893     248.455    -167.693
  C      -26.167     247.978    -166.428
  N      -25.856     248.793    -165.395
  N      -26.717     246.818    -166.196
  C      -27.061     246.145    -167.317
  C      -26.859     246.519    -168.624
  C      -26.196     247.783    -168.871
  O      -25.918     248.247    -169.971
  N      -27.359     245.590    -169.500
  C      -27.885     244.665    -168.721
  N      -27.725     244.952    -167.385
  O      -28.126     240.492    -171.286
  O      -29.330     239.050    -169.630
  H      -30.871     244.097    -164.538
  H      -28.551     238.525    -169.902
  H      -25.446     249.348    -167.816
  H      -28.386     243.770    -169.075
  H      -27.587     244.399    -165.411
  H      -30.170     244.870    -166.620
  H      -25.542     249.743    -165.511
  H      -30.280     242.824    -167.627
  H      -26.251     248.545    -164.486
  H      -28.734     241.370    -165.432
  H      -28.017     240.031    -167.330
  H      -29.746     240.214    -167.538
  P      -32.186     241.026    -166.513
  C      -34.734     241.299    -166.496
  O      -33.578     241.045    -165.719
  O      -31.441     239.757    -165.879
  O      -32.300     240.891    -167.994
  H      -31.727     238.939    -166.325
  H      -35.550     241.589    -165.833
  H      -35.017     240.390    -167.036
  H      -34.553     242.108    -167.212
  H      -32.273     241.157    -171.541
  H      -31.517     239.585    -171.436
  H      -30.833     240.817    -172.470

 3  4  5  6  7  8  9  10  11  12  23  26  30  31 0
 6-311+G(2d,p)
 ****
 33  35  36  37  38 0
 6-311+G(2d,p)
 ****
 1  2  13  14  15  16  17  18  19  20  21  22  24  25 0
 3-21G
 ****
 27  28  29  32  34  39  40  41  42  43  44  45  46  47  48  49 0
 3-21G
 ****


