%nproc=1
%NoSave
%Mem=1900MB
#P OB98/GEN NMR

erre ene a

0 1
  C      -62.835     720.502     575.748
  O      -63.534     721.643     576.243
  P      -62.991     722.316     577.590
  C      -62.793     724.757     578.502
  O      -63.165     723.906     577.431
  C      -63.008     726.213     578.098
  O      -62.084     726.594     577.056
  C      -64.398     726.495     577.534
  O      -65.365     726.610     578.566
  C      -64.162     727.798     576.778
  O      -64.224     728.930     577.644
  C      -62.725     727.605     576.248
  N      -62.694     727.261     574.830
  C      -61.877     728.053     574.024
  O      -61.238     728.998     574.463
  N      -61.859     727.740     572.689
  C      -62.596     726.763     572.084
  O      -62.571     726.567     570.875
  C      -63.459     725.978     572.980
  C      -63.480     726.264     574.282
  O      -61.399     722.108     577.502
  O      -63.556     721.753     578.847
  H      -65.070     728.878     578.119
  H      -61.038     721.958     578.407
  H      -61.248     728.274     572.100
  H      -64.062     725.192     572.535
  H      -64.124     725.695     574.954
  H      -62.147     728.517     576.387
  H      -64.908     727.958     575.991
  H      -64.677     725.708     576.827
  H      -62.812     726.841     578.973
  H      -61.736     724.585     578.746
  H      -63.398     724.509     579.389
  P      -66.852     727.035     578.139
  C      -69.188     725.911     578.431
  O      -67.791     725.838     578.646
  O      -66.754     726.861     576.543
  O      -67.215     728.410     578.586
  H      -66.160     726.135     576.287
  H      -69.420     726.386     577.468
  H      -69.653     726.466     579.250
  H      -69.582     724.891     578.421
  H      -63.304     720.159     574.849
  H      -62.858     719.724     576.482
  H      -61.819     720.768     575.542

 3  4  5  6  7  8  9  10  11  12  13  23  28  29  30  31  32 0
 6-311+G(2d,p)
 ****
 33  34 0
 6-311+G(2d,p)
 ****
 1  2  14  15  16  17  18  19  20  21  22  24  25  26 0
 3-21G
 ****
 27  35  36  37  38  39  40  41  42  43  44  45 0
 3-21G
 ****


