%nproc=1
%NoSave
%Mem=1900MB
#P OB98/GEN NMR

erre ene a

0 1
  C     -204.646    -473.226     209.129
  O     -204.499    -473.079     207.710
  P     -204.749    -474.296     206.698
  C     -207.307    -474.138     206.410
  O     -206.035    -473.962     205.791
  C     -208.167    -475.155     205.657
  O     -209.266    -475.604     206.474
  C     -208.790    -474.630     204.367
  O     -207.835    -474.613     203.323
  C     -209.942    -475.607     204.168
  O     -209.474    -476.827     203.573
  C     -210.394    -475.859     205.615
  N     -215.402    -475.052     204.957
  C     -214.562    -475.976     204.448
  N     -213.238    -476.127     204.667
  C     -212.795    -475.201     205.534
  C     -213.536    -474.189     206.135
  C     -214.900    -474.130     205.816
  N     -215.751    -473.177     206.326
  N     -212.734    -473.416     206.948
  C     -211.536    -473.960     206.853
  N     -211.523    -475.042     206.014
  O     -204.798    -475.641     207.353
  O     -203.533    -474.220     205.656
  H     -210.229    -477.448     203.541
  H     -203.345    -475.109     205.305
  H     -215.014    -476.699     203.771
  H     -210.652    -473.612     207.373
  H     -210.679    -476.908     205.774
  H     -210.729    -475.210     203.522
  H     -209.191    -473.624     204.529
  H     -207.538    -476.032     205.447
  H     -207.820    -473.167     206.428
  H     -216.710    -473.177     206.021
  H     -215.376    -472.456     206.931
  H     -207.151    -474.470     207.441
  P     -207.578    -473.272     202.488
  C     -206.679    -471.693     204.300
  O     -206.355    -472.506     203.187
  O     -208.782    -472.436     202.224
  O     -206.922    -473.793     201.118
  H     -207.153    -473.179     200.399
  H     -207.077    -470.741     203.956
  H     -205.770    -471.516     204.876
  H     -207.412    -472.191     204.945
  H     -204.432    -472.294     209.608
  H     -203.966    -473.973     209.483
  H     -205.649    -473.521     209.355

 3  4  5  6  7  8  9  10  11  12  22  25  29  30  31  32 0
 6-311+G(2d,p)
 ****
 33  36  37 0
 6-311+G(2d,p)
 ****
 1  2  13  14  15  16  17  18  19  20  21  23  24  26 0
 3-21G
 ****
 27  28  34  35  38  39  40  41  42  43  44  45  46  47  48 0
 3-21G
 ****


