%nproc=1
%NoSave
%Mem=1900MB
#P OB98/GEN NMR

erre ene a

0 1
  C     -343.565      -5.678     203.311
  O     -344.728      -5.452     202.539
  H     -342.951      -6.427     202.804
  H     -343.836      -6.058     204.299
  H     -342.981      -4.758     203.412
  P     -345.761      -4.317     203.006
  C     -346.967      -5.759     204.763
  O     -346.131      -4.632     204.538
  C     -347.634      -5.668     206.136
  O     -346.673      -6.075     207.144
  C     -348.128      -4.263     206.492
  O     -349.357      -4.376     207.205
  C     -347.044      -3.735     207.420
  O     -347.542      -2.742     208.321
  C     -346.582      -5.016     208.116
  N     -343.785      -3.774     212.140
  C     -345.156      -3.869     212.002
  N     -345.903      -3.562     213.091
  N     -345.748      -4.226     210.894
  C     -344.885      -4.516     209.892
  C     -343.511      -4.456     209.899
  C     -342.863      -4.046     211.133
  O     -341.655      -3.930     211.309
  N     -342.992      -4.800     208.677
  C     -344.046      -5.058     207.931
  N     -345.219      -4.892     208.615
  O     -346.945      -4.118     202.113
  O     -344.864      -2.998     203.109
  H     -346.766      -2.370     208.793
  H     -344.985      -2.436     202.320
  H     -343.384      -3.479     213.014
  H     -344.017      -5.363     206.888
  H     -347.215      -5.273     208.977
  H     -346.236      -3.291     206.831
  H     -345.511      -3.297     213.981
  H     -348.260      -3.623     205.611
  H     -346.904      -3.650     213.019
  H     -348.456      -6.392     206.171
  H     -346.348      -6.661     204.708
  H     -347.732      -5.806     203.977
  P     -350.625      -3.531     206.701
  C     -350.688      -2.182     208.898
  O     -350.632      -2.123     207.475
  O     -351.924      -4.260     206.691
  O     -350.189      -3.109     205.210
  H     -350.995      -3.024     204.661
  H     -350.687      -1.189     209.296
  H     -349.837      -2.715     209.267
  H     -351.582      -2.686     209.199

 6  7  8  9  10  11  12  13  14  15  26  29  33  34 0
 6-311+G(2d,p)
 ****
 36  38  39  40  41 0
 6-311+G(2d,p)
 ****
 1  2  3  4  5  16  17  18  19  20  21  22  23  24  25 0
 3-21G
 ****
 27  28  30  31  32  35  37  42  43  44  45  46  47 0
 3-21G
 ****
 48  49 0
 3-21G
 ****


