%nproc=1
%NoSave
%Mem=1900MB
#P OB98/GEN NMR

erre ene a

0 1
  C     -126.697    -844.169    -402.420
  O     -126.544    -842.807    -402.003
  P     -127.001    -842.291    -400.555
  C     -125.995    -842.471    -398.182
  O     -125.736    -842.271    -399.569
  C     -124.754    -842.193    -397.329
  O     -123.655    -843.032    -397.739
  C     -124.228    -840.761    -397.406
  O     -125.037    -839.878    -396.654
  C     -122.807    -840.944    -396.880
  O     -122.789    -840.959    -395.437
  C     -122.429    -842.334    -397.442
  N     -121.571    -842.239    -398.614
  C     -120.300    -842.827    -398.503
  O     -119.934    -843.334    -397.447
  N     -119.469    -842.807    -399.599
  C     -119.846    -842.183    -400.678
  N     -118.984    -842.195    -401.731
  C     -121.139    -841.470    -400.807
  C     -121.937    -841.545    -399.743
  O     -128.196    -843.004    -399.998
  O     -127.331    -840.731    -400.756
  H     -123.246    -840.151    -395.146
  H     -128.038    -840.470    -400.138
  H     -121.392    -840.944    -401.706
  H     -122.905    -841.057    -399.756
  H     -121.926    -842.933    -396.675
  H     -122.132    -840.146    -397.206
  H     -124.192    -840.441    -398.454
  H     -125.002    -842.456    -396.285
  H     -118.109    -842.694    -401.622
  H     -126.309    -843.513    -398.035
  H     -119.174    -841.745    -402.614
  H     -126.823    -841.813    -397.879
  P     -125.859    -838.724    -397.398
  C     -127.987    -838.681    -398.842
  O     -127.293    -839.317    -397.778
  O     -125.141    -838.028    -398.507
  O     -126.212    -837.686    -396.219
  H     -126.245    -836.782    -396.591
  H     -128.704    -839.380    -399.265
  H     -127.288    -838.379    -399.630
  H     -128.510    -837.802    -398.461
  H     -126.325    -844.281    -403.417
  H     -127.733    -844.436    -402.394
  H     -126.147    -844.808    -401.761

 3  4  5  6  7  8  9  10  11  12  13  23  27  28  29  30  32 0
 6-311+G(2d,p)
 ****
 34  35 0
 6-311+G(2d,p)
 ****
 1  2  14  15  16  17  18  19  20  21  22  24  25  26 0
 3-21G
 ****
 31  33  36  37  38  39  40  41  42  43  44  45  46 0
 3-21G
 ****


