%nproc=1
%NoSave
%Mem=1900MB
#P OB98/GEN NMR

erre ene a

0 1
  C     -889.600    -891.710    -899.220
  O     -889.090    -891.960    -897.880
  P     -890.070    -891.730    -896.650
  C     -890.430    -894.070    -895.720
  O     -891.030    -892.980    -896.400
  C     -891.360    -895.380    -895.820
  O     -892.560    -895.140    -895.060
  C     -891.760    -895.690    -897.240
  O     -891.840    -897.130    -897.380
  C     -893.170    -895.090    -897.390
  O     -893.910    -895.640    -898.460
  C     -893.650    -895.430    -895.910
  N     -898.620    -894.510    -896.860
  C     -897.730    -895.360    -897.410
  N     -896.420    -895.570    -897.090
  C     -896.040    -894.640    -896.140
  C     -896.820    -893.680    -895.520
  C     -898.160    -893.580    -895.920
  N     -899.050    -892.690    -895.440
  N     -896.060    -892.940    -894.630
  C     -894.870    -893.520    -894.690
  N     -894.810    -894.570    -895.540
  O     -891.130    -890.570    -897.220
  O     -889.380    -891.180    -895.440
  H     -894.130    -896.580    -898.250
  H     -890.890    -889.700    -896.880
  H     -898.150    -896.070    -898.140
  H     -893.980    -893.100    -894.130
  H     -894.020    -896.440    -895.850
  H     -893.130    -894.000    -897.540
  H     -891.080    -895.320    -898.050
  H     -890.740    -896.220    -895.390
  H     -890.290    -893.800    -894.660
  H     -900.000    -892.640    -895.780
  H     -898.760    -892.000    -894.740
  H     -889.440    -894.270    -896.120
  P     -890.770    -897.870    -898.330
  C     -889.880    -899.290    -896.290
  O     -889.560    -898.370    -897.320
  O     -890.090    -896.620    -899.090
  O     -891.340    -898.870    -899.260
  H     -889.780    -896.960    -900.000
  H     -889.070    -900.000    -896.220
  H     -890.790    -899.810    -896.490
  H     -889.940    -898.770    -895.300
  H     -888.831    -891.907    -899.937
  H     -889.908    -890.689    -899.299
  H     -890.436    -892.351    -899.409

 3  4  5  6  7  8  9  10  11  12  22  25  29  30  31  32 0
 6-311+G(2d,p)
 ****
 33  36  37 0
 6-311+G(2d,p)
 ****
 1  2  13  14  15  16  17  18  19  20  21  23  24  26 0
 3-21G
 ****
 27  28  34  35  38  39  40  41  42  43  44  45  46  47  48 0
 3-21G
 ****


