%nproc=1
%NoSave
%Mem=1900MB
#P OB98/GEN NMR

erre ene a

0 1
  C     -465.026     238.135     386.189
  O     -465.383     237.435     387.362
  H     -464.995     237.432     385.357
  H     -464.033     238.576     386.311
  H     -465.752     238.918     385.959
  P     -465.785     238.267     388.671
  C     -468.257     238.138     387.951
  O     -467.316     237.906     388.989
  C     -469.487     237.238     388.117
  O     -469.122     235.875     387.755
  C     -470.042     237.203     389.547
  O     -471.458     236.992     389.453
  C     -469.364     235.970     390.111
  O     -470.015     235.504     391.272
  C     -469.404     235.040     388.893
  N     -468.462     233.925     389.007
  C     -468.794     232.924     389.911
  O     -469.804     232.958     390.612
  N     -467.902     231.890     390.015
  C     -466.707     231.803     389.364
  O     -465.932     230.868     389.523
  C     -466.386     232.917     388.457
  C     -467.265     233.910     388.320
  O     -465.484     239.727     388.627
  O     -465.002     237.533     389.860
  H     -470.919     235.194     391.053
  H     -464.779     238.175     390.561
  H     -468.134     231.151     390.657
  H     -465.442     232.879     387.935
  H     -467.060     234.745     387.658
  H     -470.412     234.619     388.763
  H     -468.328     236.192     390.385
  H     -469.829     238.110     390.116
  H     -470.255     237.563     387.403
  H     -467.768     237.924     386.996
  H     -468.563     239.188     387.963
  P     -472.495     237.690     390.458
  C     -473.106     239.719     388.993
  O     -473.569     238.516     389.598
  O     -471.854     238.477     391.552
  O     -473.354     236.478     391.058
  H     -473.674     236.715     391.949
  H     -473.907     240.177     388.451
  H     -472.303     239.495     388.322
  H     -472.760     240.390     389.752

 6  7  8  9  10  11  12  13  14  15  16  26  31  32  33  34  35 0
 6-311+G(2d,p)
 ****
 36  37 0
 6-311+G(2d,p)
 ****
 1  2  3  4  5  17  18  19  20  21  22  23  24  25 0
 3-21G
 ****
 27  28  29  30  38  39  40  41  42  43  44  45 0
 3-21G
 ****


