%nproc=1
%NoSave
%Mem=1900MB
#P OB98/GEN NMR

erre ene a

0 1
  C     -218.659    -635.156     449.750
  O     -219.605    -636.222     449.906
  P     -220.883    -636.132     450.869
  C     -222.525    -635.989     448.863
  O     -222.064    -635.386     450.065
  C     -223.413    -635.026     448.075
  O     -222.783    -633.725     447.981
  C     -223.671    -635.419     446.626
  O     -224.576    -636.502     446.510
  C     -224.189    -634.100     446.044
  O     -225.588    -633.940     446.288
  C     -223.390    -633.056     446.850
  N     -222.390    -632.360     446.052
  C     -222.649    -631.019     445.767
  O     -223.710    -630.493     446.101
  N     -221.694    -630.301     445.075
  C     -220.630    -630.903     444.634
  N     -219.726    -630.140     443.970
  C     -220.396    -632.345     444.796
  C     -221.301    -633.007     445.511
  O     -220.604    -635.529     452.201
  O     -221.417    -637.635     451.008
  H     -221.899    -637.736     451.853
  H     -225.749    -634.161     447.222
  H     -219.520    -632.815     444.367
  H     -221.201    -634.075     445.693
  H     -224.076    -632.316     447.290
  H     -224.034    -634.042     444.963
  H     -222.715    -635.682     446.151
  H     -224.365    -634.913     448.612
  H     -219.912    -629.152     443.876
  H     -223.114    -636.876     449.128
  H     -218.856    -630.502     443.597
  H     -221.666    -636.318     448.268
  P     -223.955    -637.940     446.162
  C     -224.427    -638.703     448.599
  O     -223.491    -638.620     447.539
  O     -222.573    -637.587     445.431
  O     -224.821    -638.794     445.297
  H     -222.425    -638.202     444.689
  H     -224.168    -639.568     449.221
  H     -225.445    -638.835     448.228
  H     -224.377    -637.797     449.208
  H     -217.899    -635.452     449.058
  H     -218.213    -634.934     450.697
  H     -219.160    -634.286     449.379

 3  4  5  6  7  8  9  10  11  12  13  24  27  28  29  30  32 0
 6-311+G(2d,p)
 ****
 34  35 0
 6-311+G(2d,p)
 ****
 1  2  14  15  16  17  18  19  20  21  22  23  25  26 0
 3-21G
 ****
 31  33  36  37  38  39  40  41  42  43  44  45  46 0
 3-21G
 ****


