%nproc=1
%NoSave
%Mem=1900MB
#P OB98/GEN NMR

erre ene a

0 1
  C     -892.299     228.100     545.041
  O     -891.642     227.752     543.834
  H     -891.943     229.083     545.358
  H     -892.054     227.372     545.819
  H     -893.380     228.145     544.888
  P     -892.154     226.420     543.098
  C     -893.750     227.565     541.357
  O     -893.610     226.779     542.527
  C     -895.100     227.294     540.692
  O     -895.220     225.873     540.441
  C     -896.300     227.719     541.534
  O     -897.310     228.232     540.664
  C     -896.770     226.421     542.164
  O     -898.150     226.479     542.538
  C     -896.430     225.403     541.068
  N     -896.270     224.042     541.599
  C     -897.320     223.154     541.366
  O     -898.330     223.529     540.767
  N     -897.230     221.881     541.857
  C     -896.200     221.544     542.582
  N     -896.180     220.268     543.062
  C     -895.090     222.467     542.893
  C     -895.190     223.686     542.365
  O     -892.453     225.454     544.339
  O     -891.194     225.870     542.096
  H     -898.400     225.608     542.919
  H     -892.880     225.904     545.082
  H     -894.270     222.145     543.515
  H     -894.410     224.427     542.542
  H     -897.220     225.383     540.303
  H     -896.190     226.209     543.071
  H     -896.060     228.465     542.292
  H     -895.110     227.786     539.714
  H     -896.970     219.671     542.839
  H     -892.940     227.340     540.653
  H     -895.460     219.916     543.673
  H     -893.670     228.617     541.646
  P     -897.910     229.693     540.942
  C     -897.800     230.706     538.573
  O     -897.270     230.723     539.890
  O     -897.900     230.143     542.356
  O     -899.430     229.560     540.407
  H     -900.000     230.058     541.018
  H     -897.292     231.433     537.975
  H     -898.844     230.938     538.606
  H     -897.663     229.734     538.146

 6  7  8  9  10  11  12  13  14  15  16  26  30  31  32  33  35 0
 6-311+G(2d,p)
 ****
 37  38 0
 6-311+G(2d,p)
 ****
 1  2  3  4  5  17  18  19  20  21  22  23  24  25 0
 3-21G
 ****
 27  28  29  34  36  39  40  41  42  43  44  45  46 0
 3-21G
 ****


