%nproc=1
%NoSave
%Mem=1900MB
#P OB98/GEN NMR

erre ene a

0 1
  C      123.922    -293.596    -238.657
  O      122.886    -292.613    -238.619
  P      121.386    -293.172    -238.499
  C      120.074    -291.434    -239.917
  O      120.594    -292.753    -239.833
  C      119.729    -291.077    -241.364
  O      120.868    -291.179    -242.240
  C      118.659    -291.976    -241.968
  O      117.375    -291.562    -241.529
  C      118.878    -291.762    -243.458
  O      118.201    -290.575    -243.925
  C      120.402    -291.578    -243.553
  N      120.940    -295.019    -247.239
  C      119.976    -294.042    -247.072
  N      119.038    -293.954    -248.036
  N      119.940    -293.224    -246.050
  C      120.943    -293.426    -245.164
  C      121.968    -294.341    -245.235
  C      121.998    -295.240    -246.367
  O      122.839    -296.104    -246.571
  N      122.836    -294.205    -244.177
  C      122.259    -293.295    -243.409
  N      121.142    -292.751    -243.992
  O      120.740    -292.251    -237.364
  O      121.314    -294.618    -238.146
  H      117.240    -290.734    -243.920
  H      120.591    -292.778    -236.553
  H      120.913    -295.626    -248.039
  H      122.622    -292.987    -242.441
  H      120.668    -290.774    -244.249
  H      118.485    -292.590    -244.052
  H      119.004    -294.551    -248.852
  H      118.852    -293.021    -241.707
  H      118.323    -293.240    -247.936
  H      119.386    -290.032    -241.372
  H      120.800    -290.720    -239.523
  H      119.189    -291.364    -239.276
  P      116.871    -292.080    -240.097
  C      116.217    -294.393    -241.081
  O      116.952    -293.678    -240.107
  O      115.302    -291.774    -240.131
  O      117.526    -291.412    -238.934
  H      115.027    -291.377    -239.282
  H      116.744    -295.324    -241.306
  H      116.107    -293.818    -242.003
  H      115.226    -294.629    -240.682
  H      124.872    -293.110    -238.737
  H      123.776    -294.236    -239.502
  H      123.894    -294.179    -237.760

 3  4  5  6  7  8  9  10  11  12  23  26  30  31 0
 6-311+G(2d,p)
 ****
 33  35  36  37  38 0
 6-311+G(2d,p)
 ****
 1  2  13  14  15  16  17  18  19  20  21  22  24  25 0
 3-21G
 ****
 27  28  29  32  34  39  40  41  42  43  44  45  46  47  48  49 0
 3-21G
 ****


