%nproc=1
%NoSave
%Mem=1900MB
#P OB98/GEN NMR

erre ene a

0 1
  C       34.921      26.112      73.737
  O       35.247      24.917      74.417
  H       35.373      26.952      74.271
  H       33.838      26.247      73.722
  H       35.310      26.094      72.715
  P       34.853      23.543      73.686
  C       32.674      23.245      75.062
  O       33.256      23.418      73.780
  C       31.152      23.304      74.963
  O       30.721      24.641      74.628
  C       30.558      22.386      73.899
  O       30.418      21.053      74.371
  C       29.203      23.041      73.692
  O       28.322      22.691      74.779
  C       29.560      24.531      73.758
  N       27.706      25.852      69.229
  C       27.080      25.249      70.302
  N       25.774      24.944      70.143
  N       27.678      24.963      71.429
  C       28.986      25.314      71.442
  C       29.718      25.919      70.444
  C       29.042      26.236      69.208
  O       29.543      26.792      68.234
  N       31.015      26.128      70.830
  C       31.076      25.634      72.051
  N       29.872      25.121      72.467
  O       35.371      22.419      74.705
  O       35.436      23.352      72.327
  H       28.784      22.932      75.603
  H       35.701      21.657      74.191
  H       27.202      26.040      68.380
  H       31.959      25.625      72.672
  H       28.759      25.133      74.200
  H       28.716      22.720      72.771
  H       25.267      25.091      69.284
  H       31.131      22.430      72.966
  H       25.286      24.531      70.927
  H       30.741      23.065      75.952
  H       33.023      24.043      75.726
  H       32.988      22.279      75.470
  P       30.831      19.864      73.371
  C       28.406      19.377      72.576
  O       29.703      19.850      72.229
  O       30.509      18.549      74.224
  O       32.244      19.898      72.899
  H       31.039      17.798      73.892
  H       27.767      19.427      71.719
  H       28.002      19.985      73.358
  H       28.474      18.363      72.912

 6  7  8  9  10  11  12  13  14  15  26  29  33  34 0
 6-311+G(2d,p)
 ****
 36  38  39  40  41 0
 6-311+G(2d,p)
 ****
 1  2  3  4  5  16  17  18  19  20  21  22  23  24  25 0
 3-21G
 ****
 27  28  30  31  32  35  37  42  43  44  45  46  47 0
 3-21G
 ****
 48  49 0
 3-21G
 ****


