%nproc=1
%NoSave
%Mem=1900MB
#P OB98/GEN NMR

erre ene a

0 1
  C      654.975     625.265       3.079
  O      655.745     625.945       2.110
  H      655.498     624.351       3.365
  H      654.002     624.993       2.659
  H      654.837     625.889       3.965
  P      655.193     627.371       1.608
  C      656.921     629.140       2.389
  O      656.490     628.289       1.342
  C      658.453     629.151       2.486
  O      658.890     627.869       3.042
  C      659.168     629.350       1.147
  O      660.360     630.112       1.384
  C      659.585     627.928       0.772
  O      660.664     627.902      -0.165
  C      659.920     627.374       2.155
  N      662.557     623.411       0.493
  C      662.792     624.772       0.361
  N      663.900     625.132      -0.320
  N      662.003     625.697       0.845
  C      660.958     625.190       1.538
  C      660.603     623.870       1.740
  C      661.465     622.863       1.165
  O      661.301     621.641       1.232
  N      659.440     623.777       2.468
  C      659.090     625.033       2.707
  N      659.976     625.921       2.163
  O      654.563     627.987       2.948
  O      654.207     627.318       0.493
  H      661.388     628.454       0.200
  H      653.608     627.787       2.997
  H      663.184     622.740       0.085
  H      658.213     625.339       3.258
  H      660.889     627.732       2.526
  H      658.737     627.395       0.326
  H      664.574     624.476      -0.689
  H      658.568     629.835       0.368
  H      664.113     626.119      -0.393
  H      658.751     629.917       3.211
  H      656.504     628.787       3.339
  H      656.557     630.157       2.197
  P      660.811     631.178       0.273
  C      660.807     632.976       2.160
  O      661.477     632.429       1.025
  O      659.414     631.764      -0.230
  O      661.612     630.594      -0.845
  H      659.494     632.072      -1.162
  H      661.373     633.798       2.546
  H      660.711     632.223       2.914
  H      659.835     633.317       1.870

 6  7  8  9  10  11  12  13  14  15  26  29  33  34 0
 6-311+G(2d,p)
 ****
 36  38  39  40  41 0
 6-311+G(2d,p)
 ****
 1  2  3  4  5  16  17  18  19  20  21  22  23  24  25 0
 3-21G
 ****
 27  28  30  31  32  35  37  42  43  44  45  46  47 0
 3-21G
 ****
 48  49 0
 3-21G
 ****


