%nproc=1
%NoSave
%Mem=1900MB
#P OB98/GEN NMR

erre ene a

0 1
  C      345.399    -331.315    -217.276
  O      345.374    -331.232    -218.686
  H      346.354    -330.932    -216.921
  H      345.303    -332.358    -216.971
  H      344.593    -330.718    -216.834
  P      343.945    -331.427    -219.400
  C      344.682    -333.065    -221.279
  O      344.250    -331.751    -220.941
  C      345.384    -333.066    -222.628
  O      344.424    -332.912    -223.698
  C      346.405    -331.943    -222.810
  O      347.661    -332.281    -222.233
  C      346.494    -331.879    -224.325
  O      347.306    -332.971    -224.805
  C      345.029    -332.094    -224.740
  N      343.862    -328.238    -227.830
  C      344.758    -329.282    -228.011
  N      345.440    -329.296    -229.173
  N      344.964    -330.220    -227.123
  C      344.224    -330.068    -225.995
  C      343.319    -329.078    -225.701
  C      343.087    -328.056    -226.693
  O      342.300    -327.114    -226.590
  N      342.767    -329.253    -224.458
  C      343.359    -330.337    -223.992
  N      344.258    -330.871    -224.887
  O      343.357    -329.937    -219.430
  O      343.017    -332.361    -218.703
  H      348.201    -332.843    -224.441
  H      342.694    -329.841    -218.722
  H      343.747    -327.535    -228.537
  H      343.169    -330.776    -223.026
  H      344.940    -332.639    -225.682
  H      346.959    -330.955    -224.687
  H      345.347    -328.591    -229.884
  H      346.028    -330.983    -222.421
  H      346.095    -330.051    -229.328
  H      345.862    -334.045    -222.761
  H      343.805    -333.724    -221.320
  H      345.365    -333.426    -220.502
  P      348.390    -331.194    -221.309
  C      350.065    -330.668    -223.218
  O      349.889    -331.042    -221.859
  O      348.573    -331.974    -219.927
  O      347.649    -329.914    -221.119
  H      348.004    -331.575    -219.234
  H      351.110    -330.607    -223.439
  H      349.608    -329.715    -223.388
  H      349.609    -331.400    -223.851

 6  7  8  9  10  11  12  13  14  15  26  29  33  34 0
 6-311+G(2d,p)
 ****
 36  38  39  40  41 0
 6-311+G(2d,p)
 ****
 1  2  3  4  5  16  17  18  19  20  21  22  23  24  25 0
 3-21G
 ****
 27  28  30  31  32  35  37  42  43  44  45  46  47 0
 3-21G
 ****
 48  49 0
 3-21G
 ****


