%nproc=1
%NoSave
%Mem=1900MB
#P OB98/GEN NMR

erre ene a

0 1
  C      665.420    1609.269    -891.550
  O      666.748    1609.763    -891.610
  H      665.289    1608.641    -890.670
  H      664.739    1610.123    -891.480
  H      665.191    1608.702    -892.460
  P      667.917    1608.666    -891.720
  C      669.129    1610.470    -893.160
  O      669.245    1609.480    -892.130
  C      670.401    1611.300    -893.190
  O      671.540    1610.460    -893.470
  C      670.417    1612.388    -894.270
  O      669.712    1613.541    -893.870
  C      671.919    1612.650    -894.380
  O      672.342    1613.462    -893.280
  C      672.488    1611.239    -894.270
  N      675.945    1609.993    -897.820
  C      676.045    1610.673    -896.670
  N      675.086    1610.969    -895.780
  C      673.899    1610.476    -896.190
  C      673.621    1609.767    -897.350
  C      674.724    1609.530    -898.190
  N      674.615    1608.854    -899.390
  N      672.285    1609.471    -897.440
  C      671.768    1609.952    -896.330
  N      672.686    1610.579    -895.530
  O      667.555    1607.862    -893.060
  O      668.086    1607.765    -890.550
  H      673.261    1613.746    -893.450
  H      667.994    1606.993    -893.060
  H      677.040    1611.039    -896.420
  H      670.715    1609.872    -896.060
  H      673.445    1611.228    -893.730
  H      672.182    1613.182    -895.300
  H      670.035    1611.996    -895.230
  H      670.559    1611.748    -892.200
  H      668.269    1611.129    -892.920
  H      675.419    1608.880    -900.000
  H      673.695    1608.626    -899.730
  H      668.962    1609.988    -894.120
  P      669.170    1614.523    -895.020
  C      667.442    1615.246    -893.210
  O      668.292    1615.636    -894.270
  O      668.065    1613.634    -895.770
  O      670.241    1615.039    -895.960
  H      667.965    1613.905    -896.690
  H      666.934    1616.106    -892.825
  H      668.024    1614.798    -892.432
  H      666.724    1614.539    -893.570

 6  7  8  9  10  11  12  13  14  15  25  28  32  33  34  35 0
 6-311+G(2d,p)
 ****
 36  39  40 0
 6-311+G(2d,p)
 ****
 1  2  3  4  5  16  17  18  19  20  21  22  23  24 0
 3-21G
 ****
 26  27  29  30  31  37  38  41  42  43  44  45  46  47 0
 3-21G
 ****
 48 0
 3-21G
 ****


