%nproc=1
%NoSave
%Mem=1900MB
#P OB98/GEN NMR

erre ene a

0 1
  C      778.036    -742.775    -940.490
  O      776.883    -741.906    -940.363
  P      777.009    -740.431    -940.955
  C      775.304    -740.584    -942.916
  O      776.674    -740.490    -942.513
  C      775.057    -739.747    -944.173
  O      775.155    -738.306    -943.884
  C      776.042    -740.005    -945.313
  O      775.662    -741.133    -946.089
  C      775.895    -738.739    -946.150
  O      774.696    -738.837    -946.971
  C      775.721    -737.677    -945.065
  N      778.168    -733.236    -945.106
  C      776.895    -733.552    -945.545
  N      776.166    -732.545    -946.058
  N      776.386    -734.748    -945.476
  C      777.209    -735.659    -944.928
  C      778.515    -735.475    -944.471
  C      779.072    -734.142    -944.588
  O      780.217    -733.794    -944.236
  N      779.048    -736.642    -943.995
  C      778.084    -737.516    -944.151
  N      776.963    -736.995    -944.721
  O      778.592    -740.155    -940.937
  O      776.270    -739.401    -940.167
  H      774.761    -738.076    -947.601
  H      778.754    -739.212    -940.847
  H      778.533    -732.303    -945.198
  H      778.189    -738.581    -943.842
  H      774.994    -736.872    -945.360
  H      776.751    -738.603    -946.815
  H      776.471    -731.567    -946.085
  H      777.071    -740.092    -944.916
  H      775.204    -732.733    -946.336
  H      774.030    -739.946    -944.508
  H      774.640    -740.246    -942.119
  H      775.048    -741.630    -943.088
  P      776.773    -742.255    -946.362
  C      775.184    -744.270    -945.926
  O      776.331    -743.556    -945.538
  O      778.052    -741.695    -945.586
  O      777.079    -742.485    -947.819
  H      778.890    -741.961    -946.048
  H      775.132    -745.217    -945.350
  H      775.216    -744.518    -947.007
  H      774.278    -743.659    -945.710
  H      777.815    -743.727    -940.054
  H      778.871    -742.336    -939.985
  H      778.273    -742.904    -941.525

 3  4  5  6  7  8  9  10  11  12  23  26  30  31 0
 6-311+G(2d,p)
 ****
 33  35  36  37  38 0
 6-311+G(2d,p)
 ****
 1  2  13  14  15  16  17  18  19  20  21  22  24  25 0
 3-21G
 ****
 27  28  29  32  34  39  40  41  42  43  44  45  46  47  48  49 0
 3-21G
 ****


