%nproc=1
%NoSave
%Mem=1900MB
#P OB98/GEN NMR

erre ene a

0 1
  C      -63.682     686.879     314.541
  O      -64.336     685.952     313.697
  H      -62.633     686.967     314.230
  H      -63.708     686.505     315.573
  H      -64.154     687.860     314.492
  P      -65.942     685.956     313.710
  C      -65.963     684.808     311.382
  O      -66.409     684.767     312.728
  C      -66.832     683.893     310.511
  O      -66.327     682.526     310.632
  C      -68.319     683.878     310.894
  O      -69.108     683.776     309.702
  C      -68.453     682.580     311.673
  O      -69.791     682.091     311.683
  C      -67.471     681.695     310.910
  N      -67.839     676.688     310.987
  C      -68.127     677.591     309.985
  N      -68.644     677.097     308.845
  N      -67.915     678.880     310.093
  C      -67.369     679.239     311.280
  C      -67.050     678.444     312.356
  C      -67.297     677.019     312.234
  O      -67.088     676.169     313.092
  N      -66.573     679.197     313.401
  C      -66.636     680.446     312.971
  N      -67.113     680.522     311.688
  O      -66.300     687.285     312.891
  O      -66.572     685.946     315.063
  H      -69.829     681.309     312.267
  H      -66.444     688.028     313.513
  H      -68.031     675.706     310.857
  H      -66.363     681.319     313.547
  H      -67.880     681.335     309.956
  H      -68.132     682.733     312.709
  H      -68.804     676.118     308.666
  H      -68.633     684.759     311.469
  H      -68.818     677.738     308.079
  H      -66.702     684.196     309.456
  H      -64.924     684.461     311.340
  H      -66.008     685.832     311.008
  P      -69.875     685.085     309.179
  C      -69.943     683.895     306.867
  O      -70.605     684.739     307.791
  O      -68.674     686.048     308.729
  O      -70.737     685.733     310.219
  H      -68.915     686.982     308.909
  H      -70.557     683.764     306.001
  H      -69.759     682.944     307.321
  H      -69.013     684.340     306.581

 6  7  8  9  10  11  12  13  14  15  26  29  33  34 0
 6-311+G(2d,p)
 ****
 36  38  39  40  41 0
 6-311+G(2d,p)
 ****
 1  2  3  4  5  16  17  18  19  20  21  22  23  24  25 0
 3-21G
 ****
 27  28  30  31  32  35  37  42  43  44  45  46  47 0
 3-21G
 ****
 48  49 0
 3-21G
 ****


