%nproc=1
%NoSave
%Mem=1900MB
#P OB98/GEN NMR

erre ene a

0 1
  C      672.884    -342.620     124.497
  O      672.525    -341.648     123.532
  P      671.820    -342.062     122.153
  C      669.587    -341.099     122.995
  O      670.591    -341.038     121.994
  C      669.292    -339.707     123.538
  O      670.500    -339.174     124.124
  C      668.868    -338.667     122.502
  O      667.471    -338.688     122.182
  C      669.193    -337.373     123.232
  O      668.161    -337.085     124.195
  C      670.501    -337.733     123.942
  N      674.444    -334.475     123.744
  C      673.451    -334.654     124.657
  N      672.433    -335.530     124.629
  C      672.500    -336.305     123.535
  C      673.462    -336.260     122.533
  C      674.459    -335.290     122.656
  N      675.480    -335.127     121.746
  N      673.196    -337.214     121.570
  C      672.115    -337.834     121.998
  N      671.669    -337.332     123.188
  O      671.476    -343.509     122.046
  O      672.845    -341.577     121.023
  H      667.329    -336.964     123.692
  H      672.637    -342.011     120.176
  H      673.489    -334.000     125.527
  H      671.626    -338.641     121.480
  H      670.570    -337.286     124.942
  H      669.257    -336.514     122.562
  H      669.472    -338.733     121.581
  H      668.538    -339.792     124.331
  H      669.955    -341.729     123.813
  H      676.235    -334.494     121.994
  H      675.593    -335.830     121.035
  H      668.688    -341.558     122.582
  P      667.069    -338.465     120.641
  C      666.806    -340.872     119.638
  O      666.195    -339.751     120.232
  O      668.210    -338.172     119.735
  O      665.985    -337.292     120.721
  H      665.145    -337.525     121.162
  H      666.081    -341.690     119.598
  H      667.669    -341.207     120.212
  H      667.115    -340.630     118.614
  H      673.338    -342.138     125.337
  H      673.577    -343.312     124.066
  H      672.008    -343.145     124.817

 3  4  5  6  7  8  9  10  11  12  22  25  29  30  31  32 0
 6-311+G(2d,p)
 ****
 33  36  37 0
 6-311+G(2d,p)
 ****
 1  2  13  14  15  16  17  18  19  20  21  23  24  26 0
 3-21G
 ****
 27  28  34  35  38  39  40  41  42  43  44  45  46  47  48 0
 3-21G
 ****


