%nproc=1
%NoSave
%Mem=1900MB
#P OB98/GEN NMR

erre ene a

0 1
  C      148.105    -106.474     -36.148
  O      148.930    -105.502     -35.533
  H      148.487    -107.468     -35.900
  H      148.122    -106.350     -37.236
  H      147.078    -106.387     -35.777
  P      148.564    -103.966     -35.830
  C      150.534    -103.651     -37.494
  O      149.125    -103.649     -37.302
  C      150.931    -102.646     -38.569
  O      150.470    -103.078     -39.870
  C      150.380    -101.240     -38.352
  O      151.202    -100.505     -37.459
  C      150.409    -100.686     -39.771
  O      151.740    -100.252     -40.129
  C      149.996    -101.912     -40.603
  N      146.522    -104.024     -43.598
  C      147.899    -104.058     -43.670
  N      148.437    -104.734     -44.714
  N      148.690    -103.474     -42.805
  C      148.015    -102.788     -41.851
  C      146.655    -102.676     -41.673
  C      145.797    -103.375     -42.604
  O      144.569    -103.453     -42.547
  N      146.358    -101.908     -40.572
  C      147.534    -101.530     -40.112
  N      148.572    -102.034     -40.856
  O      149.561    -103.154     -34.874
  O      147.144    -103.586     -35.577
  H      151.748    -100.004     -41.071
  H      149.092    -102.374     -34.521
  H      145.967    -104.520     -44.270
  H      147.693    -100.902     -39.240
  H      150.492    -101.926     -41.579
  H      149.761     -99.815     -39.878
  H      147.907    -104.941     -45.545
  H      149.338    -101.274     -37.997
  H      149.446    -104.693     -44.805
  H      152.027    -102.625     -38.614
  H      150.847    -104.656     -37.798
  H      151.022    -103.394     -36.546
  P      150.523     -99.347     -36.579
  C      151.448     -97.214     -37.744
  O      150.327     -98.060     -37.521
  O      151.704     -98.914     -35.593
  O      149.311     -99.773     -35.814
  H      151.534     -99.262     -34.697
  H      151.163     -96.407     -38.386
  H      152.233     -97.776     -38.205
  H      151.791     -96.822     -36.809

 6  7  8  9  10  11  12  13  14  15  26  29  33  34 0
 6-311+G(2d,p)
 ****
 36  38  39  40  41 0
 6-311+G(2d,p)
 ****
 1  2  3  4  5  16  17  18  19  20  21  22  23  24  25 0
 3-21G
 ****
 27  28  30  31  32  35  37  42  43  44  45  46  47 0
 3-21G
 ****
 48  49 0
 3-21G
 ****


