%nproc=1
%NoSave
%Mem=1900MB
#P OB98/GEN NMR

erre ene a

0 1
  C     -248.557     369.921    -734.357
  O     -249.772     370.516    -734.823
  P     -250.809     371.024    -733.710
  C     -250.012     373.487    -733.656
  O     -250.149     372.271    -732.939
  C     -249.054     374.455    -732.948
  O     -249.487     374.694    -731.579
  C     -247.612     373.938    -732.873
  O     -246.739     375.072    -732.955
  C     -247.526     373.357    -731.473
  O     -246.173     373.234    -731.039
  C     -248.382     374.365    -730.710
  N     -247.225     373.668    -725.785
  C     -246.543     374.232    -726.802
  N     -246.912     374.359    -728.095
  C     -248.145     373.862    -728.281
  C     -248.962     373.247    -727.345
  C     -248.452     373.145    -726.037
  N     -249.134     372.551    -725.008
  N     -250.141     372.822    -727.929
  C     -250.034     373.177    -729.195
  N     -248.864     373.833    -729.449
  O     -250.778     369.849    -732.619
  O     -252.191     371.249    -734.228
  H     -246.178     372.903    -730.114
  H     -251.607     369.341    -732.659
  H     -245.564     374.631    -726.547
  H     -250.765     372.970    -729.965
  H     -247.838     375.292    -730.479
  H     -247.985     372.362    -731.457
  H     -247.344     373.211    -733.644
  H     -249.077     375.409    -733.478
  H     -250.986     373.970    -733.769
  H     -248.685     372.498    -724.107
  H     -250.032     372.121    -725.195
  H     -249.669     373.266    -734.670
  P     -245.583     375.013    -734.063
  C     -246.149     377.073    -735.532
  O     -246.200     375.669    -735.389
  O     -245.485     373.456    -734.416
  O     -244.275     375.573    -733.606
  H     -244.585     373.243    -734.746
  H     -245.907     377.308    -736.575
  H     -245.402     377.533    -734.882
  H     -247.130     377.489    -735.299
  H     -247.959     369.628    -735.195
  H     -248.786     369.060    -733.764
  H     -248.017     370.630    -733.764

 3  4  5  6  7  8  9  10  11  12  22  25  29  30  31  32 0
 6-311+G(2d,p)
 ****
 33  36  37 0
 6-311+G(2d,p)
 ****
 1  2  13  14  15  16  17  18  19  20  21  23  24  26 0
 3-21G
 ****
 27  28  34  35  38  39  40  41  42  43  44  45  46  47  48 0
 3-21G
 ****


