%nproc=1
%NoSave
%Mem=1900MB
#P OB98/GEN NMR

erre ene a

0 1
  C     -372.959     174.836    -180.212
  O     -373.680     176.021    -179.845
  P     -375.226     175.870    -179.454
  C     -374.683     176.397    -176.966
  O     -375.313     175.524    -177.892
  C     -375.292     176.225    -175.572
  O     -376.669     176.662    -175.535
  C     -375.299     174.784    -175.082
  O     -374.047     174.412    -174.518
  C     -376.357     174.850    -173.993
  O     -375.785     175.402    -172.788
  C     -377.381     175.821    -174.593
  N     -382.402     175.216    -174.764
  C     -381.628     176.005    -173.935
  N     -382.289     176.752    -173.021
  N     -380.324     176.062    -173.996
  C     -379.797     175.278    -174.967
  C     -380.459     174.452    -175.847
  C     -381.901     174.388    -175.759
  O     -382.638     173.697    -176.455
  N     -379.583     173.809    -176.682
  C     -378.396     174.259    -176.323
  N     -378.472     175.141    -175.274
  O     -375.633     174.484    -180.146
  O     -376.091     176.995    -179.921
  H     -375.694     176.362    -172.938
  H     -376.586     174.487    -180.359
  H     -383.403     175.208    -174.669
  H     -377.460     173.980    -176.789
  H     -377.833     176.476    -173.839
  H     -376.750     173.863    -173.730
  H     -383.294     176.795    -172.955
  H     -375.617     174.096    -175.876
  H     -381.741     177.363    -172.430
  H     -374.714     176.841    -174.870
  H     -374.786     177.436    -177.292
  H     -373.608     176.193    -176.961
  P     -373.528     172.916    -174.768
  C     -371.250     173.793    -175.658
  O     -372.409     173.023    -175.910
  O     -374.771     172.228    -175.504
  O     -373.138     172.178    -173.534
  H     -374.809     171.278    -175.280
  H     -370.536     173.623    -176.465
  H     -370.789     173.502    -174.711
  H     -371.509     174.857    -175.633
  H     -371.947     175.092    -180.445
  H     -373.420     174.389    -181.068
  H     -372.973     174.143    -179.397

 3  4  5  6  7  8  9  10  11  12  23  26  30  31 0
 6-311+G(2d,p)
 ****
 33  35  36  37  38 0
 6-311+G(2d,p)
 ****
 1  2  13  14  15  16  17  18  19  20  21  22  24  25 0
 3-21G
 ****
 27  28  29  32  34  39  40  41  42  43  44  45  46  47  48  49 0
 3-21G
 ****


