%nproc=1
%NoSave
%Mem=1900MB
#P OB98/GEN NMR

erre ene a

0 1
  C       39.152      24.035      70.529
  O       38.803      23.472      69.285
  H       39.801      24.897      70.349
  H       39.704      23.312      71.135
  H       38.262      24.373      71.065
  P       37.883      22.156      69.249
  C       35.803      23.563      69.780
  O       36.631      22.488      70.205
  C       34.382      23.082      69.489
  O       33.824      22.468      70.683
  C       33.425      24.204      69.057
  O       32.683      23.790      67.908
  C       32.487      24.350      70.245
  O       31.224      24.907      69.893
  C       32.458      22.911      70.768
  N       31.931      22.831      72.124
  C       30.698      22.186      72.269
  O       30.124      21.718      71.285
  N       30.122      22.134      73.511
  C       30.700      22.717      74.513
  N       30.061      22.654      75.711
  C       31.988      23.434      74.399
  C       32.544      23.448      73.188
  O       38.600      20.887      69.566
  O       37.223      22.157      67.792
  H       30.962      24.556      69.014
  H       36.944      21.239      67.567
  H       32.426      23.908      75.264
  H       33.488      23.950      73.007
  H       31.850      22.268      70.118
  H       32.949      25.009      70.992
  H       33.935      25.140      68.833
  H       34.431      22.290      68.732
  H       29.177      22.158      75.743
  H       36.246      24.012      68.882
  H       30.402      23.089      76.554
  H       35.771      24.311      70.577
  P       33.475      23.796      66.513
  C       33.528      21.208      66.334
  O       34.278      22.412      66.393
  O       34.620      24.890      66.744
  O       32.616      24.139      65.342
  H       34.435      25.682      66.203
  H       34.196      20.375      66.256
  H       32.884      21.230      65.480
  H       32.939      21.111      67.222

 6  7  8  9  10  11  12  13  14  15  16  26  30  31  32  33  35 0
 6-311+G(2d,p)
 ****
 37  38 0
 6-311+G(2d,p)
 ****
 1  2  3  4  5  17  18  19  20  21  22  23  24  25 0
 3-21G
 ****
 27  28  29  34  36  39  40  41  42  43  44  45  46 0
 3-21G
 ****


