%nproc=1
%NoSave
%Mem=1900MB
#P OB98/GEN NMR

erre ene a

0 1
  C      200.761      19.453      45.494
  O      200.811      18.391      46.425
  H      199.728      19.581      45.159
  H      201.380      19.206      44.627
  H      201.106      20.387      45.944
  P      202.123      18.278      47.338
  C      204.626      18.738      46.822
  O      203.381      18.263      46.335
  C      205.707      18.602      45.750
  O      206.021      17.184      45.584
  C      205.299      19.153      44.373
  O      206.446      19.750      43.755
  C      204.946      17.895      43.600
  O      205.048      18.078      42.190
  C      205.964      16.913      44.171
  N      207.847      12.436      42.910
  C      208.481      13.594      43.309
  N      209.829      13.586      43.318
  N      207.843      14.680      43.667
  C      206.495      14.547      43.632
  C      205.747      13.460      43.251
  C      206.464      12.268      42.840
  O      205.960      11.219      42.457
  N      204.406      13.747      43.294
  C      204.345      15.011      43.679
  N      205.588      15.540      43.893
  O      202.049      16.769      47.869
  O      202.211      19.259      48.458
  H      205.948      18.409      41.989
  H      201.623      16.747      48.748
  H      208.383      11.633      42.628
  H      203.441      15.587      43.795
  H      206.970      17.061      43.753
  H      203.922      17.583      43.837
  H      210.391      12.780      43.085
  H      204.478      19.877      44.408
  H      210.310      14.417      43.647
  H      206.620      19.092      46.107
  H      204.918      18.149      47.700
  H      204.520      19.786      47.126
  P      206.764      21.286      44.084
  C      206.046      23.521      42.959
  O      205.677      22.207      43.345
  O      208.104      21.565      43.254
  O      206.954      21.567      45.539
  H      208.670      22.193      43.739
  H      205.216      23.999      42.483
  H      206.870      23.475      42.278
  H      206.331      24.081      43.825

 6  7  8  9  10  11  12  13  14  15  26  29  33  34 0
 6-311+G(2d,p)
 ****
 36  38  39  40  41 0
 6-311+G(2d,p)
 ****
 1  2  3  4  5  16  17  18  19  20  21  22  23  24  25 0
 3-21G
 ****
 27  28  30  31  32  35  37  42  43  44  45  46  47 0
 3-21G
 ****
 48  49 0
 3-21G
 ****


