%nproc=1
%NoSave
%Mem=1900MB
#P OB98/GEN NMR

erre ene a

0 1
  C     -473.906     152.058    -166.424
  O     -474.151     153.349    -165.875
  P     -475.589     154.004    -166.127
  C     -475.129     155.029    -163.792
  O     -475.707     155.208    -165.072
  C     -475.571     156.129    -162.833
  O     -476.985     156.373    -162.977
  C     -475.348     155.825    -161.363
  O     -474.021     156.086    -160.947
  C     -476.306     156.824    -160.714
  O     -475.709     158.122    -160.693
  C     -477.489     156.794    -161.679
  N     -482.062     156.522    -159.403
  C     -481.223     157.557    -159.610
  N     -480.019     157.549    -160.209
  C     -479.684     156.302    -160.599
  C     -480.432     155.148    -160.417
  C     -481.677     155.282    -159.808
  N     -482.548     154.232    -159.628
  N     -479.757     154.064    -160.949
  C     -478.637     154.552    -161.434
  N     -478.550     155.905    -161.255
  O     -476.597     152.904    -165.549
  O     -475.888     154.346    -167.553
  H     -475.012     158.115    -160.007
  H     -477.479     153.008    -165.962
  H     -481.559     158.519    -159.243
  H     -477.872     153.967    -161.931
  H     -477.935     157.797    -161.818
  H     -476.550     156.569    -159.682
  H     -475.669     154.799    -161.114
  H     -475.039     157.060    -163.114
  H     -474.037     155.038    -163.879
  H     -483.496     154.442    -159.342
  H     -482.351     153.357    -160.099
  H     -475.430     154.041    -163.401
  P     -473.123     154.802    -160.555
  C     -471.093     155.761    -161.881
  O     -471.607     155.317    -160.639
  O     -473.279     153.852    -161.830
  O     -473.532     154.134    -159.291
  H     -473.132     152.916    -161.577
  H     -470.200     156.350    -161.704
  H     -471.824     156.380    -162.409
  H     -470.835     154.885    -162.503
  H     -472.912     151.749    -166.178
  H     -474.014     152.096    -167.488
  H     -474.608     151.359    -166.019

 3  4  5  6  7  8  9  10  11  12  22  25  29  30  31  32 0
 6-311+G(2d,p)
 ****
 33  36  37 0
 6-311+G(2d,p)
 ****
 1  2  13  14  15  16  17  18  19  20  21  23  24  26 0
 3-21G
 ****
 27  28  34  35  38  39  40  41  42  43  44  45  46  47  48 0
 3-21G
 ****


