%nproc=1
%NoSave
%Mem=1900MB
#P OB98/GEN NMR

erre ene a

0 1
  C      434.477      -1.164      80.866
  O      434.071      -2.458      81.266
  H      434.131      -0.987      79.841
  H      435.569      -1.078      80.888
  H      434.030      -0.412      81.524
  P      434.515      -2.927      82.735
  C      436.879      -3.228      81.751
  O      436.095      -2.644      82.784
  C      438.276      -3.585      82.272
  O      439.103      -2.394      82.233
  C      438.269      -4.099      83.717
  O      439.241      -5.140      83.843
  C      438.718      -2.898      84.528
  O      439.323      -3.252      85.766
  C      439.655      -2.184      83.546
  N      442.383       1.351      86.019
  C      442.590       0.036      85.795
  N      441.823      -0.833      85.111
  C      440.753      -0.203      84.584
  C      440.401       1.130      84.719
  C      441.271       1.932      85.485
  N      441.053       3.266      85.736
  N      439.207       1.393      84.067
  C      438.854       0.228      83.530
  N      439.751      -0.765      83.831
  O      434.103      -4.311      83.120
  O      433.920      -1.757      83.648
  H      438.678      -3.771      86.292
  H      434.090      -0.878      83.256
  H      443.500      -0.376      86.240
  H      437.960       0.063      82.940
  H      440.672      -2.592      83.576
  H      437.843      -2.262      84.753
  H      437.293      -4.461      84.034
  H      438.729      -4.312      81.596
  H      436.973      -2.527      80.905
  H      441.733       3.767      86.278
  H      440.242       3.715      85.329
  H      436.360      -4.124      81.408
  P      438.762      -6.660      83.618
  C      437.914      -7.485      85.927
  O      437.557      -6.976      84.639
  O      439.849      -7.678      83.575
  O      437.997      -6.569      82.212
  H      438.182      -7.389      81.703
  H      437.028      -7.651      86.503
  H      438.539      -6.777      86.430
  H      438.443      -8.408      85.812

 6  7  8  9  10  11  12  13  14  15  25  28  32  33  34  35 0
 6-311+G(2d,p)
 ****
 36  39  40 0
 6-311+G(2d,p)
 ****
 1  2  3  4  5  16  17  18  19  20  21  22  23  24 0
 3-21G
 ****
 26  27  29  30  31  37  38  41  42  43  44  45  46  47 0
 3-21G
 ****
 48 0
 3-21G
 ****


