%nproc=1
%NoSave
%Mem=1900MB
#P OB98/GEN NMR

erre ene a

0 1
  C     -104.460    -596.106       2.142
  O     -104.523    -594.751       2.585
  P     -105.267    -593.679       1.645
  C     -106.766    -592.611       3.458
  O     -106.727    -593.374       2.255
  C     -108.213    -592.348       3.900
  O     -108.939    -591.768       2.783
  C     -109.013    -593.604       4.288
  O     -108.968    -594.024       5.654
  C     -110.443    -593.149       4.024
  O     -110.936    -592.408       5.150
  C     -110.313    -592.231       2.815
  N     -114.065    -594.446       0.123
  C     -114.054    -593.882       1.365
  N     -113.011    -593.340       2.007
  C     -111.892    -593.349       1.238
  C     -111.780    -593.897      -0.031
  C     -112.921    -594.481      -0.593
  N     -112.940    -595.057      -1.842
  N     -110.475    -593.747      -0.501
  C     -109.822    -593.149       0.489
  N     -110.653    -592.882       1.557
  O     -105.230    -593.960       0.179
  O     -104.466    -592.320       1.977
  H     -111.656    -591.841       4.806
  H     -104.361    -591.793       1.167
  H     -114.990    -593.886       1.913
  H     -108.776    -592.899       0.470
  H     -110.942    -591.340       2.896
  H     -111.130    -593.988       3.881
  H     -108.758    -594.456       3.632
  H     -108.226    -591.627       4.717
  H     -106.248    -591.660       3.331
  H     -113.804    -595.482      -2.148
  H     -112.082    -595.124      -2.366
  H     -106.205    -593.179       4.214
  P     -108.119    -595.314       6.100
  C     -106.363    -593.938       7.480
  O     -106.626    -594.778       6.374
  O     -108.201    -596.478       5.163
  O     -108.682    -595.618       7.562
  H     -108.443    -594.942       8.233
  H     -105.297    -593.853       7.623
  H     -106.827    -594.326       8.402
  H     -106.766    -592.924       7.276
  H     -103.939    -596.695       2.868
  H     -103.942    -596.152       1.207
  H     -105.452    -596.488       2.019

 3  4  5  6  7  8  9  10  11  12  22  25  29  30  31  32 0
 6-311+G(2d,p)
 ****
 33  36  37 0
 6-311+G(2d,p)
 ****
 1  2  13  14  15  16  17  18  19  20  21  23  24  26 0
 3-21G
 ****
 27  28  34  35  38  39  40  41  42  43  44  45  46  47  48 0
 3-21G
 ****


