%nproc=1
%NoSave
%Mem=1900MB
#P OB98/GEN NMR

erre ene a

0 1
  C      160.698      67.642       8.912
  O      159.743      67.317       7.923
  H      160.233      67.523       9.898
  H      161.019      68.681       8.803
  H      161.563      66.978       8.852
  P      160.213      67.248       6.391
  C      160.618      68.932       4.479
  O      160.218      68.751       5.834
  C      160.557      70.412       4.110
  O      159.232      70.931       4.365
  C      161.499      71.289       4.926
  O      162.841      71.151       4.499
  C      160.884      72.660       4.696
  O      161.309      73.212       3.444
  C      159.374      72.337       4.668
  N      158.716      72.675       5.931
  C      158.138      73.939       6.003
  O      158.151      74.747       5.076
  N      157.591      74.276       7.214
  C      157.692      73.544       8.365
  O      157.409      73.989       9.474
  C      158.258      72.193       8.214
  C      158.747      71.832       7.024
  O      159.493      66.255       5.539
  O      161.775      66.903       6.493
  H      161.907      65.953       6.302
  H      160.737      73.995       3.289
  H      157.207      75.210       7.287
  H      158.287      71.553       9.089
  H      159.201      70.851       6.896
  H      158.878      72.887       3.858
  H      161.166      73.362       5.484
  H      161.413      71.037       5.991
  H      160.762      70.510       3.036
  H      159.935      68.365       3.831
  H      161.634      68.542       4.353
  P      164.016      70.961       5.570
  C      164.926      72.200       7.633
  O      164.067      72.269       6.499
  O      165.333      70.544       5.003
  O      163.451      69.844       6.571
  H      164.129      69.147       6.684
  H      164.878      73.122       8.173
  H      165.931      72.028       7.309
  H      164.614      71.398       8.269

 6  7  8  9  10  11  12  13  14  15  16  27  31  32  33  34  35 0
 6-311+G(2d,p)
 ****
 36  37 0
 6-311+G(2d,p)
 ****
 1  2  3  4  5  17  18  19  20  21  22  23  24  25 0
 3-21G
 ****
 26  28  29  30  38  39  40  41  42  43  44  45 0
 3-21G
 ****


