%nproc=1
%NoSave
%Mem=1900MB
#P OB98/GEN NMR

erre ene a

0 1
  C      -44.890    -138.412    -595.167
  O      -43.971    -137.686    -595.994
  P      -42.613    -138.451    -596.393
  C      -41.195    -137.975    -594.266
  O      -41.902    -138.946    -595.040
  C      -40.054    -138.611    -593.460
  O      -40.611    -139.546    -592.503
  C      -39.028    -139.376    -594.300
  O      -37.725    -139.178    -593.727
  C      -39.402    -140.831    -594.064
  O      -38.312    -141.718    -594.306
  C      -39.867    -140.769    -592.607
  N      -40.120    -145.812    -592.243
  C      -39.049    -145.003    -592.579
  N      -37.891    -145.631    -592.869
  N      -39.115    -143.692    -592.612
  C      -40.324    -143.205    -592.260
  C      -41.461    -143.908    -591.904
  C      -41.387    -145.351    -591.912
  O      -42.321    -146.126    -591.676
  N      -42.501    -143.052    -591.617
  C      -41.999    -141.849    -591.805
  N      -40.684    -141.888    -592.206
  O      -41.674    -137.272    -596.928
  O      -42.809    -139.511    -597.433
  H      -37.614    -141.498    -593.657
  H      -41.373    -137.471    -597.837
  H      -40.024    -146.816    -592.254
  H      -42.547    -140.919    -591.692
  H      -39.009    -140.709    -591.917
  H      -40.225    -141.110    -594.740
  H      -37.754    -146.624    -592.796
  H      -39.011    -139.113    -595.358
  H      -37.076    -145.052    -593.070
  H      -39.558    -137.815    -592.891
  H      -41.888    -137.483    -593.581
  H      -40.799    -137.214    -594.948
  P      -37.222    -137.653    -593.602
  C      -35.100    -137.963    -595.089
  O      -36.382    -137.366    -594.941
  O      -36.112    -137.727    -592.453
  O      -38.313    -136.676    -593.284
  H      -36.040    -136.862    -592.000
  H      -34.915    -138.736    -594.327
  H      -34.340    -137.185    -594.993
  H      -35.040    -138.415    -596.080
  H      -45.749    -137.805    -594.970
  H      -44.414    -138.667    -594.243
  H      -45.193    -139.306    -595.671

 3  4  5  6  7  8  9  10  11  12  23  26  30  31  33  0
 6-311+G(2d,p)
 ****
 35  36  37  38 0
 6-311+G(2d,p)
 ****
 1  2  13  14  15  16  17  18  19  20  21  22  24  25  27  28  29 0
 3-21G
 ****
 32  34  39  40  41  42  43  44  45  46  47  48  49 0
 3-21G
 ****


