%nproc=1
%NoSave
%Mem=1900MB
#P OB98/GEN NMR

erre ene a

0 1
  C     -442.989     448.617     124.158
  O     -442.614     448.125     125.448
  P     -442.850     449.064     126.730
  C     -440.506     450.122     126.930
  O     -441.883     450.335     126.625
  C     -439.700     451.432     126.771
  O     -440.226     452.472     127.655
  C     -438.221     451.241     127.118
  O     -437.403     452.112     126.299
  C     -438.142     451.754     128.541
  O     -436.801     452.120     128.901
  C     -439.139     452.916     128.486
  N     -438.297     455.879     132.585
  C     -437.656     455.778     131.398
  N     -437.958     454.995     130.340
  C     -439.040     454.245     130.609
  C     -439.795     454.227     131.774
  C     -439.379     455.097     132.797
  N     -440.014     455.158     134.023
  N     -440.837     453.328     131.664
  C     -440.684     452.771     130.499
  N     -439.626     453.299     129.794
  O     -442.836     448.372     128.052
  O     -444.293     449.704     126.438
  H     -436.434     452.637     128.146
  H     -444.813     449.717     127.275
  H     -436.798     456.436     131.281
  H     -441.290     451.956     130.095
  H     -438.703     453.802     128.014
  H     -438.476     450.959     129.232
  H     -437.848     450.213     127.016
  H     -439.825     451.792     125.746
  H     -440.100     449.350     126.283
  H     -439.578     455.722     134.739
  H     -440.740     454.494     134.239
  H     -440.427     449.732     127.947
  P     -436.504     451.362     125.193
  C     -434.324     450.642     126.458
  O     -435.613     450.296     125.981
  O     -435.749     452.307     124.307
  O     -437.591     450.488     124.405
  H     -438.164     449.948     124.988
  H     -433.959     449.814     127.088
  H     -434.381     451.546     127.068
  H     -433.646     450.795     125.620
  H     -442.769     447.878     123.416
  H     -442.441     449.511     123.944
  H     -444.037     448.830     124.149

 3  4  5  6  7  8  9  10  11  12  22  25  29  30  31  32 0
 6-311+G(2d,p)
 ****
 33  36  37 0
 6-311+G(2d,p)
 ****
 1  2  13  14  15  16  17  18  19  20  21  23  24  26 0
 3-21G
 ****
 27  28  34  35  38  39  40  41  42  43  44  45  46  47  48 0
 3-21G
 ****


