%nproc=1
%NoSave
%Mem=1900MB
#P OB98/GEN NMR

erre ene a

0 1
  C      140.856     193.215     171.366
  O      142.075     193.005     170.674
  P      142.087     192.863     169.076
  C      141.028     191.236     167.380
  O      141.224     191.545     168.756
  C      141.345     189.762     167.104
  O      142.753     189.505     167.279
  C      140.628     188.789     168.035
  O      139.272     188.635     167.647
  C      141.483     187.538     167.864
  O      141.106     186.808     166.688
  C      142.901     188.129     167.708
  N      143.683     188.029     168.936
  C      144.625     186.992     168.976
  O      144.728     186.211     168.028
  N      145.385     186.834     170.114
  C      145.206     187.636     171.120
  N      145.984     187.423     172.222
  C      144.205     188.719     171.127
  C      143.485     188.859     170.016
  O      143.442     192.910     168.447
  O      141.122     194.049     168.598
  H      140.190     186.496     166.839
  H      141.562     194.933     168.686
  H      144.085     189.351     171.997
  H      142.726     189.629     169.938
  H      143.446     187.616     166.908
  H      141.382     186.856     168.717
  H      140.700     189.144     169.070
  H      141.084     189.544     166.061
  H      146.637     186.650     172.184
  H      141.702     191.863     166.786
  H      145.900     187.960     173.070
  H      139.997     191.466     167.092
  P      138.162     188.303     168.750
  C      137.764     186.457     170.495
  O      138.465     186.836     169.327
  O      136.748     188.546     168.332
  O      138.558     189.256     169.981
  H      137.748     189.671     170.335
  H      137.789     185.367     170.582
  H      136.719     186.787     170.446
  H      138.245     186.902     171.367
  H      141.049     193.284     172.416
  H      140.194     192.396     171.178
  H      140.405     194.124     171.026

 3  4  5  6  7  8  9  10  11  12  13  23  27  28  29  30  32 0
 6-311+G(2d,p)
 ****
 34  35 0
 6-311+G(2d,p)
 ****
 1  2  14  15  16  17  18  19  20  21  22  24  25  26 0
 3-21G
 ****
 31  33  36  37  38  39  40  41  42  43  44  45  46 0
 3-21G
 ****


