%nproc=1
%NoSave
%Mem=1900MB
#P OB98/GEN NMR

erre ene a

0 1
  C     -178.328    -213.505     -49.257
  O     -177.951    -213.206     -47.931
  P     -177.672    -211.686     -47.482
  C     -175.352    -212.443     -46.639
  O     -176.073    -211.531     -47.470
  C     -174.143    -213.008     -47.384
  O     -174.563    -213.785     -48.526
  C     -173.189    -211.953     -47.928
  O     -172.389    -211.411     -46.888
  C     -172.432    -212.744     -48.971
  O     -171.363    -213.496     -48.380
  C     -173.527    -213.690     -49.526
  N     -174.051    -213.243     -50.812
  C     -173.504    -213.860     -51.942
  O     -172.604    -214.699     -51.829
  N     -173.952    -213.470     -53.187
  C     -174.843    -212.539     -53.288
  N     -175.238    -212.185     -54.540
  C     -175.426    -211.845     -52.120
  C     -174.986    -212.237     -50.925
  O     -178.371    -211.258     -46.233
  O     -178.108    -210.841     -48.772
  H     -171.779    -214.080     -47.707
  H     -179.087    -210.800     -48.868
  H     -176.160    -211.060     -52.252
  H     -175.355    -211.780     -50.014
  H     -173.126    -214.705     -49.650
  H     -171.977    -212.102     -49.744
  H     -173.765    -211.154     -48.421
  H     -173.605    -213.679     -46.695
  H     -174.787    -212.671     -55.315
  H     -176.022    -213.263     -46.359
  H     -175.899    -211.447     -54.733
  H     -175.037    -211.930     -45.722
  P     -172.615    -209.905     -46.406
  C     -170.233    -209.447     -47.238
  O     -171.573    -208.975     -47.184
  O     -172.663    -209.708     -44.920
  O     -174.025    -209.504     -47.069
  H     -174.560    -209.035     -46.402
  H     -169.716    -208.930     -48.051
  H     -170.196    -210.520     -47.429
  H     -169.730    -209.223     -46.304
  H     -178.467    -214.561     -49.359
  H     -177.560    -213.180     -49.928
  H     -179.242    -213.001     -49.490

 3  4  5  6  7  8  9  10  11  12  13  23  27  28  29  30  32 0
 6-311+G(2d,p)
 ****
 34  35 0
 6-311+G(2d,p)
 ****
 1  2  14  15  16  17  18  19  20  21  22  24  25  26 0
 3-21G
 ****
 31  33  36  37  38  39  40  41  42  43  44  45  46 0
 3-21G
 ****


