%nproc=1
%NoSave
%Mem=1900MB
#P OB98/GEN NMR

erre ene a

0 1
  C      -86.029      46.735     257.031
  O      -85.818      46.948     255.649
  P      -84.332      47.057     255.058
  C      -84.651      49.616     254.879
  O      -83.849      48.553     255.397
  C      -84.118      50.972     255.334
  O      -84.350      51.159     256.749
  C      -82.621      51.153     255.133
  O      -82.333      51.424     253.775
  C      -82.332      52.307     256.086
  O      -82.645      53.571     255.479
  C      -83.300      52.008     257.253
  N      -82.616      51.405     258.394
  C      -81.832      52.272     259.167
  O      -81.716      53.453     258.848
  N      -81.152      51.761     260.248
  C      -81.242      50.493     260.520
  N      -80.539      50.047     261.598
  C      -82.033      49.545     259.720
  C      -82.691      50.065     258.681
  O      -84.176      46.643     253.632
  O      -83.468      46.164     256.076
  H      -82.330      54.259     256.104
  H      -83.626      45.202     255.933
  H      -82.065      48.495     259.978
  H      -83.292      49.439     258.034
  H      -83.786      52.933     257.593
  H      -81.279      52.342     256.382
  H      -82.091      50.256     255.471
  H      -84.672      51.753     254.788
  H      -79.983      50.725     262.102
  H      -85.675      49.482     255.248
  H      -80.506      49.078     261.879
  H      -84.670      49.551     253.788
  P      -80.892      51.060     253.179
  C      -80.213      53.512     253.516
  O      -79.848      52.151     253.710
  O      -80.853      50.806     251.706
  O      -80.470      49.743     253.996
  H      -80.090      49.091     253.373
  H      -79.617      54.134     254.193
  H      -81.277      53.668     253.732
  H      -80.001      53.806     252.490
  H      -87.080      46.691     257.229
  H      -85.595      47.540     257.586
  H      -85.572      45.813     257.324

 3  4  5  6  7  8  9  10  11  12  13  23  27  28  29  30  32 0
 6-311+G(2d,p)
 ****
 34  35 0
 6-311+G(2d,p)
 ****
 1  2  14  15  16  17  18  19  20  21  22  24  25  26 0
 3-21G
 ****
 31  33  36  37  38  39  40  41  42  43  44  45  46 0
 3-21G
 ****


