%nproc=1
%NoSave
%Mem=1900MB
#P OB98/GEN NMR

erre ene a

0 1
  C      -22.173      66.378     -40.772
  O      -20.805      66.489     -41.103
  H      -22.468      67.256     -40.192
  H      -22.330      65.486     -40.160
  H      -22.790      66.327     -41.673
  P      -20.235      65.475     -42.205
  C      -21.813      65.867     -44.223
  O      -20.542      66.122     -43.645
  C      -22.128      66.912     -45.294
  O      -22.601      68.119     -44.641
  C      -20.922      67.293     -46.161
  O      -21.362      67.482     -47.509
  C      -20.473      68.622     -45.578
  O      -19.770      69.425     -46.524
  C      -21.801      69.215     -45.124
  N      -22.054      74.144     -44.107
  C      -22.409      73.447     -45.246
  N      -22.900      74.175     -46.273
  N      -22.293      72.152     -45.368
  C      -21.823      71.551     -44.248
  C      -21.431      72.127     -43.063
  C      -21.538      73.566     -42.952
  O      -21.218      74.241     -41.979
  N      -20.977      71.182     -42.178
  C      -21.093      70.039     -42.827
  N      -21.608      70.210     -44.083
  O      -21.251      64.241     -42.124
  O      -18.824      65.033     -42.001
  H      -18.874      69.040     -46.629
  H      -20.779      63.445     -41.816
  H      -22.151      75.144     -44.072
  H      -20.814      69.068     -42.441
  H      -22.344      69.703     -45.943
  H      -19.810      68.444     -44.723
  H      -23.061      75.169     -46.231
  H      -20.126      66.546     -46.141
  H      -23.202      73.682     -47.105
  H      -22.954      66.541     -45.912
  H      -22.575      65.909     -43.439
  H      -21.814      64.867     -44.669
  P      -20.655      66.588     -48.638
  C      -21.870      64.330     -48.274
  O      -21.695      65.460     -49.115
  O      -19.556      65.765     -47.816
  O      -20.031      67.385     -49.736
  H      -18.665      66.104     -48.021
  H      -22.586      63.666     -48.713
  H      -22.221      64.650     -47.315
  H      -20.935      63.822     -48.160

 6  7  8  9  10  11  12  13  14  15  26  29  33  34 0
 6-311+G(2d,p)
 ****
 36  38  39  40  41 0
 6-311+G(2d,p)
 ****
 1  2  3  4  5  16  17  18  19  20  21  22  23  24  25 0
 3-21G
 ****
 27  28  30  31  32  35  37  42  43  44  45  46  47 0
 3-21G
 ****
 48  49 0
 3-21G
 ****


