%nproc=1
%NoSave
%Mem=1900MB
#P OB98/GEN NMR

erre ene a

0 1
  C      450.392    -134.595    -381.366
  O      449.350    -133.792    -381.934
  P      449.299    -132.236    -381.545
  C      450.431    -131.458    -383.754
  O      449.305    -131.368    -382.894
  C      450.407    -130.333    -384.789
  O      451.686    -130.157    -385.425
  C      449.424    -130.573    -385.931
  O      448.097    -130.216    -385.562
  C      449.955    -129.616    -386.984
  O      449.509    -128.273    -386.697
  C      451.469    -129.721    -386.787
  N      455.530    -130.561    -389.797
  C      455.163    -129.493    -389.057
  N      454.061    -129.338    -388.296
  C      453.296    -130.442    -388.334
  C      453.539    -131.605    -389.048
  C      454.721    -131.644    -389.809
  N      455.090    -132.734    -390.562
  N      452.525    -132.522    -388.852
  C      451.694    -131.927    -388.023
  N      452.110    -130.666    -387.688
  O      450.753    -131.972    -380.930
  O      448.225    -131.892    -380.568
  H      450.050    -127.672    -387.239
  H      450.696    -131.315    -380.215
  H      455.846    -128.649    -389.071
  H      450.783    -132.366    -387.638
  H      451.979    -128.758    -386.912
  H      449.598    -129.858    -387.991
  H      449.488    -131.605    -386.292
  H      450.143    -129.398    -384.273
  H      450.445    -132.432    -384.257
  H      455.964    -132.702    -391.058
  H      454.499    -133.557    -390.555
  H      451.347    -131.412    -383.152
  P      446.957    -131.329    -385.751
  C      447.095    -132.609    -383.497
  O      446.415    -131.647    -384.280
  O      447.793    -132.634    -386.154
  O      445.928    -130.984    -386.774
  H      447.258    -133.207    -386.733
  H      446.797    -132.483    -382.451
  H      448.181    -132.477    -383.566
  H      446.824    -133.614    -383.823
  H      450.297    -135.602    -381.715
  H      450.314    -134.578    -380.299
  H      451.344    -134.204    -381.660

 3  4  5  6  7  8  9  10  11  12  22  25  29  30  31  32 0
 6-311+G(2d,p)
 ****
 33  36  37 0
 6-311+G(2d,p)
 ****
 1  2  13  14  15  16  17  18  19  20  21  23  24  26 0
 3-21G
 ****
 27  28  34  35  38  39  40  41  42  43  44  45  46  47  48 0
 3-21G
 ****


