%nproc=1
%NoSave
%Mem=1900MB
#P OB98/GEN NMR

erre ene a

0 1
  C       93.520     -38.752     139.258
  O       92.431     -39.532     139.718
  P       91.825     -40.617     138.702
  C       89.513     -39.420     138.788
  O       90.570     -39.929     137.981
  C       89.033     -38.075     138.241
  O       90.154     -37.183     138.072
  C       88.365     -38.151     136.875
  O       87.047     -38.663     136.975
  C       88.450     -36.690     136.442
  O       87.419     -35.925     137.087
  C       89.831     -36.276     136.981
  N       92.207     -33.762     133.204
  C       91.167     -33.422     134.000
  N       90.577     -34.157     134.968
  C       91.170     -35.354     135.084
  C       92.221     -35.849     134.330
  C       92.752     -34.996     133.348
  N       93.807     -35.348     132.535
  N       92.545     -37.132     134.718
  C       91.711     -37.403     135.702
  N       90.871     -36.355     135.971
  O       91.149     -41.690     139.678
  O       92.824     -41.246     137.781
  H       87.592     -34.981     136.894
  H       91.217     -42.590     139.304
  H       90.758     -32.429     133.841
  H       91.683     -38.335     136.252
  H       89.835     -35.259     137.384
  H       88.334     -36.552     135.361
  H       88.954     -38.776     136.191
  H       88.351     -37.634     138.978
  H       89.872     -39.276     139.813
  H       94.026     -34.736     131.761
  H       94.115     -36.311     132.549
  H       88.698     -40.149     138.804
  P       86.794     -40.159     136.443
  C       85.645     -39.245     134.333
  O       86.738     -39.987     134.846
  O       85.259     -40.383     136.826
  O       87.751     -41.177     136.956
  H       84.699     -39.637     136.545
  H       85.759     -39.164     133.248
  H       85.632     -38.241     134.765
  H       84.706     -39.762     134.553
  H       93.824     -38.074     140.028
  H       93.221     -38.198     138.393
  H       94.337     -39.395     139.005

 3  4  5  6  7  8  9  10  11  12  22  25  29  30  31  32 0
 6-311+G(2d,p)
 ****
 33  36  37 0
 6-311+G(2d,p)
 ****
 1  2  13  14  15  16  17  18  19  20  21  23  24  26 0
 3-21G
 ****
 27  28  34  35  38  39  40  41  42  43  44  45  46  47  48 0
 3-21G
 ****


