%nproc=1
%NoSave
%Mem=1900MB
#P OB98/GEN NMR

erre ene a

0 1
  C       16.811     -36.867      44.815
  O       16.624     -35.881      43.825
  H       17.829     -36.777      45.205
  H       16.696     -37.865      44.387
  H       16.107     -36.727      45.638
  P       15.223     -35.807      43.045
  C       15.940     -33.409      42.479
  O       15.399     -34.621      41.970
  C       15.464     -32.208      41.659
  O       16.074     -32.249      40.340
  C       13.942     -32.158      41.463
  O       13.463     -30.840      41.735
  C       13.762     -32.471      39.986
  O       12.544     -31.961      39.452
  C       15.047     -31.873      39.406
  N       15.317     -32.356      38.059
  C       14.316     -32.129      37.109
  O       13.281     -31.543      37.429
  N       14.486     -32.615      35.840
  C       15.542     -33.311      35.554
  N       15.635     -33.789      34.285
  C       16.610     -33.599      36.533
  C       16.437     -33.093      37.753
  O       14.025     -35.689      43.925
  O       15.197     -37.115      42.123
  H       12.425     -32.323      38.547
  H       14.262     -37.326      41.895
  H       17.468     -34.188      36.246
  H       17.168     -33.253      38.539
  H       14.994     -30.777      39.381
  H       13.762     -33.560      39.845
  H       13.404     -32.868      42.091
  H       15.833     -31.293      42.140
  H       14.876     -33.573      33.648
  H       17.033     -33.478      42.458
  H       16.396     -34.361      33.954
  H       15.606     -33.289      43.514
  P       12.554     -30.672      43.047
  C       11.983     -28.362      42.015
  O       11.532     -29.463      42.790
  O       13.577     -30.093      44.133
  O       11.931     -31.949      43.505
  H       13.758     -30.770      44.811
  H       11.198     -27.640      41.930
  H       12.261     -28.703      41.040
  H       12.830     -27.914      42.491

 6  7  8  9  10  11  12  13  14  15  16  26  30  31  32  33  35 0
 6-311+G(2d,p)
 ****
 37  38 0
 6-311+G(2d,p)
 ****
 1  2  3  4  5  17  18  19  20  21  22  23  24  25 0
 3-21G
 ****
 27  28  29  34  36  39  40  41  42  43  44  45  46 0
 3-21G
 ****


