%nproc=1
%NoSave
%Mem=1900MB
#P OB98/GEN NMR

erre ene a

0 1
  C     -183.723    -213.204     188.912
  O     -183.499    -214.601     189.056
  P     -183.618    -215.241     190.522
  C     -185.750    -216.710     190.397
  O     -185.181    -215.473     190.804
  C     -186.943    -217.086     191.275
  O     -186.553    -216.986     192.672
  C     -188.177    -216.196     191.087
  O     -189.331    -217.019     191.295
  C     -188.062    -215.204     192.227
  O     -189.313    -214.591     192.538
  C     -187.497    -216.108     193.320
  N     -187.409    -215.119     198.334
  C     -188.176    -215.948     197.595
  N     -188.141    -216.160     196.264
  C     -187.191    -215.399     195.690
  C     -186.360    -214.481     196.308
  C     -186.489    -214.354     197.702
  N     -185.703    -213.515     198.458
  N     -185.536    -213.872     195.382
  C     -185.865    -214.413     194.228
  N     -186.843    -215.357     194.369
  O     -183.244    -214.010     191.474
  O     -182.734    -216.413     190.777
  H     -189.192    -214.041     193.333
  H     -182.387    -214.175     191.911
  H     -188.912    -216.526     198.149
  H     -185.433    -214.154     193.271
  H     -188.274    -216.730     193.783
  H     -187.354    -214.411     191.959
  H     -188.231    -215.709     190.107
  H     -187.195    -218.135     191.084
  H     -184.991    -217.492     190.486
  H     -185.763    -213.582     199.461
  H     -184.892    -213.086     198.026
  H     -186.058    -216.643     189.349
  P     -190.726    -216.472     190.730
  C     -191.130    -218.034     188.699
  O     -190.730    -216.755     189.155
  O     -190.568    -214.883     190.832
  O     -191.922    -216.955     191.483
  H     -191.442    -214.467     190.937
  H     -191.632    -217.923     187.736
  H     -191.811    -218.524     189.402
  H     -190.240    -218.660     188.568
  H     -183.609    -212.929     187.884
  H     -183.014    -212.666     189.506
  H     -184.714    -212.966     189.237

 3  4  5  6  7  8  9  10  11  12  22  25  29  30  31  32 0
 6-311+G(2d,p)
 ****
 33  36  37 0
 6-311+G(2d,p)
 ****
 1  2  13  14  15  16  17  18  19  20  21  23  24  26 0
 3-21G
 ****
 27  28  34  35  38  39  40  41  42  43  44  45  46  47  48 0
 3-21G
 ****


