%nproc=1
%NoSave
%Mem=1900MB
#P OB98/GEN NMR

erre ene a

0 1
  C      -40.651    -225.653    -289.351
  O      -41.114    -224.466    -289.964
  H      -40.931    -225.636    -288.295
  H      -39.563    -225.714    -289.426
  H      -41.105    -226.528    -289.823
  P      -40.909    -224.337    -291.548
  C      -40.057    -221.881    -291.382
  O      -41.037    -222.772    -291.892
  C      -40.680    -220.502    -291.157
  O      -40.916    -219.883    -292.452
  C      -42.024    -220.556    -290.423
  O      -42.124    -219.424    -289.552
  C      -43.039    -220.434    -291.544
  O      -44.302    -219.939    -291.123
  C      -42.304    -219.490    -292.502
  N      -42.813    -219.566    -293.869
  C      -44.098    -219.090    -294.101
  O      -44.806    -218.542    -293.257
  N      -44.573    -219.265    -295.376
  C      -43.915    -219.873    -296.404
  O      -44.403    -220.020    -297.519
  C      -42.565    -220.363    -296.096
  C      -42.083    -220.192    -294.862
  O      -42.259    -224.952    -292.147
  O      -39.687    -224.991    -292.098
  H      -42.158    -225.911    -292.300
  H      -44.888    -219.898    -291.908
  H      -45.504    -218.923    -295.561
  H      -42.014    -220.860    -296.885
  H      -41.096    -220.554    -294.598
  H      -42.364    -218.456    -292.141
  H      -43.199    -221.411    -292.013
  H      -42.159    -221.475    -289.851
  H      -39.960    -219.870    -290.622
  H      -39.241    -221.794    -292.105
  H      -39.662    -222.277    -290.442
  P      -41.286    -219.470    -288.183
  C      -43.545    -219.348    -286.873
  O      -42.241    -218.830    -287.061
  O      -40.180    -218.349    -288.453
  O      -40.751    -220.829    -287.872
  H      -40.515    -217.587    -288.955
  H      -44.035    -218.806    -286.091
  H      -43.483    -220.382    -286.605
  H      -44.103    -219.247    -287.780

 6  7  8  9  10  11  12  13  14  15  16  27  31  32  33  34  35 0
 6-311+G(2d,p)
 ****
 36  37 0
 6-311+G(2d,p)
 ****
 1  2  3  4  5  17  18  19  20  21  22  23  24  25 0
 3-21G
 ****
 26  28  29  30  38  39  40  41  42  43  44  45 0
 3-21G
 ****


