%nproc=1
%NoSave
%Mem=1900MB
#P OB98/GEN NMR

erre ene a

0 1
  C      -57.259    -192.130      41.272
  O      -56.910    -190.774      40.999
  P      -56.104    -189.815      41.990
  C      -57.969    -188.617      43.414
  O      -56.964    -189.623      43.326
  C      -58.333    -188.323      44.878
  O      -59.038    -189.480      45.424
  C      -57.096    -188.092      45.754
  O      -57.244    -187.014      46.684
  C      -56.823    -189.473      46.337
  O      -56.018    -189.447      47.506
  C      -58.239    -190.028      46.503
  N      -58.230    -194.337      49.253
  C      -58.005    -193.037      49.663
  N      -57.725    -192.853      50.973
  N      -58.034    -192.006      48.858
  C      -58.248    -192.336      47.564
  C      -58.469    -193.592      47.029
  C      -58.483    -194.719      47.936
  O      -58.697    -195.888      47.632
  N      -58.656    -193.527      45.671
  C      -58.531    -192.250      45.375
  N      -58.288    -191.480      46.498
  O      -55.527    -188.582      41.376
  O      -54.869    -190.731      42.487
  H      -55.826    -190.370      47.756
  H      -54.119    -190.122      42.643
  H      -58.220    -195.090      49.921
  H      -58.619    -191.824      44.381
  H      -58.697    -189.719      47.447
  H      -56.273    -190.050      45.576
  H      -57.563    -193.608      51.620
  H      -56.238    -187.783      45.147
  H      -57.343    -191.935      51.221
  H      -59.017    -187.464      44.907
  H      -58.844    -189.020      42.884
  H      -57.658    -187.712      42.893
  P      -56.904    -185.469      46.478
  C      -54.718    -184.848      47.670
  O      -55.312    -185.292      46.460
  O      -57.331    -184.765      47.852
  O      -57.611    -184.818      45.326
  H      -58.038    -184.106      47.685
  H      -53.698    -184.518      47.455
  H      -54.678    -185.677      48.385
  H      -55.281    -184.010      48.098
  H      -57.795    -192.535      40.439
  H      -57.875    -192.171      42.146
  H      -56.369    -192.701      41.435

 3  4  5  6  7  8  9  10  11  12  23  26  30  31 0
 6-311+G(2d,p)
 ****
 33  35  36  37  38 0
 6-311+G(2d,p)
 ****
 1  2  13  14  15  16  17  18  19  20  21  22  24  25 0
 3-21G
 ****
 27  28  29  32  34  39  40  41  42  43  44  45  46  47  48  49 0
 3-21G
 ****


