%nproc=1
%NoSave
%Mem=1900MB
#P OB98/GEN NMR

erre ene a

0 1
  C      173.905      -6.699     -43.532
  O      173.171      -5.912     -44.448
  H      174.715      -7.198     -44.069
  H      173.267      -7.461     -43.076
  H      174.340      -6.065     -42.755
  P      171.827      -5.198     -43.950
  C      170.484      -6.816     -45.437
  O      170.647      -6.270     -44.135
  C      169.090      -7.423     -45.600
  O      168.982      -8.575     -44.723
  C      167.954      -6.451     -45.254
  O      166.872      -6.685     -46.158
  C      167.576      -6.873     -43.850
  O      166.249      -6.497     -43.534
  C      167.832      -8.383     -43.880
  N      168.045      -8.910     -42.533
  C      167.427     -10.128     -42.233
  O      166.756     -10.710     -43.086
  N      167.524     -10.627     -40.960
  C      168.138      -9.944     -40.047
  N      168.164     -10.478     -38.796
  C      168.782      -8.642     -40.309
  C      168.700      -8.189     -41.560
  O      171.544      -3.852     -44.529
  O      172.005      -5.126     -42.361
  H      165.627      -6.967     -44.131
  H      172.433      -4.286     -42.110
  H      169.277      -8.108     -39.512
  H      169.134      -7.237     -41.842
  H      166.986      -8.914     -44.335
  H      168.244      -6.390     -43.127
  H      168.260      -5.402     -45.299
  H      168.989      -7.795     -46.627
  H      167.688     -11.362     -38.658
  H      171.242      -7.596     -45.571
  H      168.574     -10.021     -37.996
  H      170.645      -6.037     -46.189
  P      166.415      -5.550     -47.196
  C      163.889      -5.367     -46.835
  O      165.154      -4.761     -46.588
  O      166.233      -6.023     -48.601
  O      167.595      -4.465     -47.119
  H      167.678      -4.018     -47.982
  H      163.116      -4.772     -46.394
  H      163.873      -6.347     -46.406
  H      163.727      -5.437     -47.890

 6  7  8  9  10  11  12  13  14  15  16  26  30  31  32  33  35 0
 6-311+G(2d,p)
 ****
 37  38 0
 6-311+G(2d,p)
 ****
 1  2  3  4  5  17  18  19  20  21  22  23  24  25 0
 3-21G
 ****
 27  28  29  34  36  39  40  41  42  43  44  45  46 0
 3-21G
 ****


