%nproc=1
%NoSave
%Mem=1900MB
#P OB98/GEN NMR

erre ene a

0 1
  C      -38.441      17.684    -135.472
  O      -38.483      16.598    -134.571
  H      -39.279      17.596    -136.168
  H      -37.510      17.659    -136.044
  H      -38.524      18.633    -134.936
  P      -37.435      16.604    -133.356
  C      -34.853      16.798    -133.162
  O      -35.969      16.581    -134.014
  C      -33.548      16.578    -133.931
  O      -33.452      15.177    -134.300
  C      -33.442      17.411    -135.213
  O      -32.088      17.850    -135.360
  C      -33.775      16.420    -136.314
  O      -33.209      16.786    -137.572
  C      -33.239      15.109    -135.724
  N      -33.897      13.947    -136.314
  C      -33.411      13.511    -137.550
  O      -32.475      14.104    -138.094
  N      -34.027      12.453    -138.171
  C      -35.091      11.934    -137.646
  N      -35.676      10.907    -138.324
  C      -35.682      12.405    -136.376
  C      -35.035      13.399    -135.768
  O      -37.579      15.137    -132.734
  O      -37.641      17.677    -132.339
  H      -33.456      16.103    -138.232
  H      -37.416      15.144    -131.771
  H      -36.587      11.956    -135.992
  H      -35.398      13.818    -134.837
  H      -32.156      15.024    -135.894
  H      -34.862      16.364    -136.438
  H      -34.109      18.277    -135.220
  H      -32.709      16.788    -133.258
  H      -35.252      10.623    -139.198
  H      -34.897      16.088    -132.330
  H      -36.531      10.457    -138.031
  H      -34.892      17.816    -132.761
  P      -31.663      19.159    -134.535
  C      -32.311      21.673    -134.530
  O      -32.363      20.430    -135.217
  O      -30.114      19.337    -134.900
  O      -31.872      19.034    -133.061
  H      -29.561      19.108    -134.129
  H      -32.817      22.420    -135.105
  H      -31.290      21.961    -134.391
  H      -32.787      21.574    -133.577

 6  7  8  9  10  11  12  13  14  15  16  26  30  31  32  33  35 0
 6-311+G(2d,p)
 ****
 37  38 0
 6-311+G(2d,p)
 ****
 1  2  3  4  5  17  18  19  20  21  22  23  24  25 0
 3-21G
 ****
 27  28  29  34  36  39  40  41  42  43  44  45  46 0
 3-21G
 ****


