%nproc=1
%NoSave
%Mem=1900MB
#P OB98/GEN NMR

erre ene a

0 1
  C      155.847    -390.301       8.892
  O      154.940    -389.517       8.143
  H      156.376    -390.973       8.211
  H      155.301    -390.902       9.626
  H      156.576    -389.663       9.400
  P      154.186    -388.336       8.929
  C      154.089    -387.129       6.599
  O      153.431    -387.480       7.803
  C      153.071    -386.803       5.504
  O      152.385    -388.023       5.132
  C      152.014    -385.782       5.930
  O      151.689    -384.971       4.800
  C      150.817    -386.648       6.288
  O      149.590    -385.927       6.208
  C      150.966    -387.797       5.279
  N      150.267    -389.008       5.707
  C      148.960    -389.175       5.244
  O      148.441    -388.319       4.524
  N      148.251    -390.280       5.638
  C      148.779    -391.118       6.475
  N      148.014    -392.180       6.848
  C      150.140    -390.959       7.025
  C      150.824    -389.899       6.594
  O      155.409    -387.398       9.363
  O      153.331    -388.797      10.061
  H      148.847    -386.566       6.284
  H      156.057    -387.254       8.653
  H      150.530    -391.677       7.729
  H      151.832    -389.710       6.940
  H      150.573    -387.501       4.297
  H      150.919    -387.024       7.311
  H      152.344    -385.150       6.759
  H      153.613    -386.461       4.615
  H      147.081    -392.237       6.467
  H      154.733    -387.947       6.265
  H      148.301    -392.862       7.534
  H      154.722    -386.259       6.800
  P      152.623    -383.725       4.430
  C      152.625    -383.571       1.847
  O      152.103    -383.059       3.068
  O      154.091    -383.974       4.496
  O      152.198    -382.629       5.527
  H      153.011    -382.179       5.830
  H      152.195    -383.039       1.024
  H      152.384    -384.610       1.764
  H      153.688    -383.449       1.834

 6  7  8  9  10  11  12  13  14  15  16  26  30  31  32  33  35 0
 6-311+G(2d,p)
 ****
 37  38 0
 6-311+G(2d,p)
 ****
 1  2  3  4  5  17  18  19  20  21  22  23  24  25 0
 3-21G
 ****
 27  28  29  34  36  39  40  41  42  43  44  45  46 0
 3-21G
 ****


