%nproc=1
%NoSave
%Mem=1900MB
#P OB98/GEN NMR

erre ene a

0 1
  C     1031.845    -896.950     390.561
  O     1030.963    -897.570     389.634
  P     1029.869    -896.810     388.749
  C     1027.646    -896.720     390.157
  O     1028.840    -896.060     389.726
  C     1026.933    -895.900     391.239
  O     1026.292    -894.720     390.627
  C     1025.824    -896.690     391.956
  O     1025.783    -896.450     393.370
  C     1024.581    -896.300     391.158
  O     1023.372    -896.540     391.867
  C     1024.851    -894.860     390.787
  N     1020.617    -892.820     388.852
  C     1020.853    -893.240     390.131
  N     1019.846    -893.090     391.029
  N     1021.996    -893.730     390.540
  C     1022.899    -893.880     389.511
  C     1022.749    -893.510     388.182
  C     1021.499    -892.890     387.788
  O     1021.242    -892.490     386.679
  N     1023.900    -893.820     387.461
  C     1024.694    -894.360     388.322
  N     1024.150    -894.390     389.608
  O     1029.288    -897.610     387.639
  O     1030.709    -895.570     388.096
  H     1022.635    -896.480     391.227
  H     1030.304    -895.420     387.236
  H     1019.714    -892.380     388.597
  H     1025.700    -894.720     388.102
  H     1024.558    -894.170     391.602
  H     1024.554    -896.920     390.263
  H     1018.919    -892.850     390.767
  H     1026.002    -897.780     391.867
  H     1019.954    -893.600     391.899
  H     1027.643    -895.490     391.948
  H     1027.963    -897.690     390.592
  H     1026.989    -896.920     389.332
  P     1026.510    -897.310     394.533
  C     1024.604    -898.950     395.124
  O     1025.917    -898.780     394.537
  O     1025.970    -896.680     395.897
  O     1028.018    -897.250     394.474
  H     1026.700    -896.290     396.402
  H     1024.434    -900.000     395.307
  H     1023.870    -898.580     394.448
  H     1024.570    -898.410     396.063
  H     1032.469    -897.693     391.012
  H     1031.275    -896.455     391.319
  H     1032.455    -896.235     390.049

 3  4  5  6  7  8  9  10  11  12  23  26  30  31 0
 6-311+G(2d,p)
 ****
 33  35  36  37  38 0
 6-311+G(2d,p)
 ****
 1  2  13  14  15  16  17  18  19  20  21  22  24  25 0
 3-21G
 ****
 27  28  29  32  34  39  40  41  42  43  44  45  46  47  48  49 0
 3-21G
 ****


