%nproc=1
%NoSave
%Mem=1900MB
#P OB98/GEN NMR

erre ene a

0 1
  C     -117.702    -221.266     -13.471
  O     -118.479    -220.161     -13.034
  P     -119.854    -220.451     -12.261
  C     -122.317    -220.562     -13.168
  O     -120.939    -220.811     -13.385
  C     -123.165    -221.403     -14.133
  O     -122.948    -220.924     -15.492
  C     -122.847    -222.904     -14.118
  O     -124.082    -223.600     -14.340
  C     -121.927    -223.068     -15.313
  O     -121.889    -224.399     -15.801
  C     -122.544    -222.055     -16.290
  N     -121.624    -221.634     -17.351
  C     -121.775    -222.210     -18.608
  O     -122.617    -223.074     -18.871
  N     -120.889    -221.792     -19.567
  C     -119.855    -220.915     -19.379
  O     -119.085    -220.585     -20.273
  C     -119.718    -220.370     -18.021
  C     -120.600    -220.741     -17.089
  O     -120.254    -218.976     -11.786
  O     -119.727    -221.455     -11.164
  H     -120.015    -218.290     -12.430
  H     -122.808    -224.698     -15.938
  H     -121.000    -222.173     -20.497
  H     -118.902    -219.688     -17.832
  H     -120.522    -220.357     -16.076
  H     -123.455    -222.475     -16.738
  H     -120.903    -222.777     -15.031
  H     -122.398    -223.230     -13.177
  H     -124.223    -221.230     -13.896
  H     -122.525    -219.502     -13.339
  H     -122.565    -220.793     -12.129
  P     -124.338    -224.968     -13.526
  C     -123.185    -227.320     -13.468
  O     -123.337    -226.073     -14.109
  O     -125.756    -225.406     -14.141
  O     -124.379    -224.816     -12.036
  H     -125.772    -225.364     -15.108
  H     -122.749    -228.034     -14.181
  H     -124.145    -227.715     -13.124
  H     -122.504    -227.213     -12.616
  H     -116.822    -220.910     -13.965
  H     -118.277    -221.860     -14.150
  H     -117.421    -221.860     -12.627

 3  4  5  6  7  8  9  10  11  12  13  24  28  29  30  31  32 0
 6-311+G(2d,p)
 ****
 33  34 0
 6-311+G(2d,p)
 ****
 1  2  14  15  16  17  18  19  20  21  22  23  25  26  27 0
 3-21G
 ****
 35  36  37  38  39  40  41  42  43  44  45 0
 3-21G
 ****


