%nproc=1
%NoSave
%Mem=1900MB
#P OB98/GEN NMR

erre ene a

0 1
  C      566.132     655.665      77.936
  O      564.986     655.144      78.614
  P      563.561     655.891      78.586
  C      562.655     654.040      77.038
  O      562.768     655.444      77.270
  C      561.184     653.594      76.979
  O      560.538     653.797      78.246
  C      560.342     654.343      75.946
  O      560.577     653.844      74.644
  C      558.934     654.091      76.491
  O      558.461     652.794      76.090
  C      559.147     654.141      78.001
  N      555.806     656.755      80.857
  C      555.855     655.454      80.474
  N      556.782     654.843      79.706
  C      557.740     655.698      79.350
  C      557.821     657.054      79.650
  C      556.789     657.579      80.440
  N      556.736     658.909      80.811
  N      558.942     657.613      79.073
  C      559.539     656.607      78.446
  N      558.850     655.435      78.589
  O      563.646     657.374      78.784
  O      562.716     655.209      79.767
  H      557.584     652.659      76.496
  H      562.067     655.847      80.122
  H      555.038     654.830      80.843
  H      560.462     656.697      77.890
  H      558.550     653.402      78.521
  H      558.204     654.827      76.119
  H      560.562     655.411      75.987
  H      561.178     652.519      76.778
  H      563.152     653.520      77.856
  H      555.947     659.214      81.362
  H      557.434     659.540      80.470
  H      563.151     653.802      76.102
  P      561.258     654.775      73.532
  C      562.815     652.757      73.217
  O      562.719     654.169      73.241
  O      561.225     656.243      73.817
  O      560.457     654.412      72.198
  H      560.452     655.199      71.608
  H      562.872     652.379      74.246
  H      563.736     652.485      72.686
  H      561.959     652.311      72.704
  H      566.965     655.011      78.088
  H      566.365     656.635      78.323
  H      565.924     655.739      76.889

 3  4  5  6  7  8  9  10  11  12  22  25  29  30  31  32 0
 6-311+G(2d,p)
 ****
 33  36  37 0
 6-311+G(2d,p)
 ****
 1  2  13  14  15  16  17  18  19  20  21  23  24  26 0
 3-21G
 ****
 27  28  34  35  38  39  40  41  42  43  44  45  46  47  48 0
 3-21G
 ****


