%nproc=1
%NoSave
%Mem=1900MB
#P OB98/GEN NMR

erre ene a

0 1
  C      381.041     137.978    -138.150
  O      381.901     138.173    -139.262
  P      381.387     139.146    -140.433
  C      383.593     140.424    -140.956
  O      382.643     139.448    -141.377
  C      385.006     139.988    -141.354
  O      385.535     139.071    -140.372
  C      385.090     139.258    -142.687
  O      384.975     140.159    -143.779
  C      386.456     138.586    -142.553
  O      387.500     139.537    -142.823
  C      386.469     138.193    -141.061
  N      388.148     133.411    -140.288
  C      388.800     134.573    -140.515
  N      388.285     135.799    -140.733
  C      386.944     135.766    -140.696
  C      386.138     134.658    -140.503
  C      386.788     133.431    -140.289
  N      386.112     132.250    -140.063
  N      384.803     135.003    -140.560
  C      384.802     136.303    -140.769
  N      386.069     136.807    -140.846
  O      381.145     140.532    -139.675
  O      380.156     138.675    -141.141
  H      387.394     140.274    -142.184
  H      380.387     141.016    -140.062
  H      389.891     134.506    -140.514
  H      383.914     136.917    -140.869
  H      387.456     138.331    -140.605
  H      386.591     137.742    -143.234
  H      384.305     138.497    -142.756
  H      385.638     140.888    -141.376
  H      383.551     140.534    -139.872
  H      386.654     131.396    -140.066
  H      385.110     132.240    -140.204
  H      383.336     141.389    -141.407
  P      384.127     139.673    -145.049
  C      383.501     142.127    -145.486
  O      384.113     140.961    -146.019
  O      382.641     139.662    -144.462
  O      384.595     138.404    -145.671
  H      382.422     140.480    -143.985
  H      383.604     142.937    -146.213
  H      383.992     142.426    -144.555
  H      382.436     141.948    -145.311
  H      381.505     137.313    -137.452
  H      380.116     137.556    -138.484
  H      380.853     138.918    -137.675

 3  4  5  6  7  8  9  10  11  12  22  25  29  30  31  32 0
 6-311+G(2d,p)
 ****
 33  36  37 0
 6-311+G(2d,p)
 ****
 1  2  13  14  15  16  17  18  19  20  21  23  24  26 0
 3-21G
 ****
 27  28  34  35  38  39  40  41  42  43  44  45  46  47  48 0
 3-21G
 ****


