%nproc=1
%NoSave
%Mem=1900MB
#P OB98/GEN NMR

erre ene a

0 1
  C     -108.511     -89.046    -161.179
  O     -108.505     -88.729    -162.581
  P     -109.444     -89.565    -163.580
  C     -110.512     -88.948    -165.888
  O     -109.379     -88.891    -165.033
  C     -110.095     -88.692    -167.338
  O     -109.762     -87.297    -167.530
  C     -108.854     -89.459    -167.777
  O     -109.140     -90.821    -168.048
  C     -108.436     -88.671    -169.014
  O     -109.188     -89.088    -170.167
  C     -108.806     -87.230    -168.614
  N     -107.643     -86.429    -168.246
  C     -106.899     -85.901    -169.297
  O     -107.152     -86.123    -170.481
  N     -105.831     -85.125    -168.940
  C     -105.398     -84.890    -167.664
  O     -104.420     -84.203    -167.409
  C     -106.174     -85.544    -166.600
  C     -107.240     -86.275    -166.934
  O     -110.912     -89.144    -163.086
  O     -109.277     -91.049    -163.536
  H     -108.925     -90.008    -170.356
  H     -111.540     -89.867    -163.279
  H     -105.296     -84.707    -169.684
  H     -105.850     -85.402    -165.577
  H     -107.824     -86.763    -166.159
  H     -109.327     -86.729    -169.440
  H     -107.377     -88.804    -169.258
  H     -108.072     -89.370    -167.017
  H     -110.948     -88.932    -167.987
  H     -111.231     -88.181    -165.581
  H     -110.983     -89.930    -165.790
  P     -108.620     -91.893    -166.971
  C     -108.425     -94.499    -167.084
  O     -108.487     -93.271    -167.779
  O     -109.924     -92.069    -166.059
  O     -107.401     -91.441    -166.235
  H     -110.745     -91.982    -166.572
  H     -109.020     -94.473    -166.171
  H     -107.382     -94.722    -166.836
  H     -108.810     -95.290    -167.735
  H     -107.834     -88.397    -160.664
  H     -108.206     -90.062    -161.042
  H     -109.498     -88.914    -160.788

 3  4  5  6  7  8  9  10  11  12  13  23  28  29  30  31  32 0
 6-311+G(2d,p)
 ****
 33  34 0
 6-311+G(2d,p)
 ****
 1  2  14  15  16  17  18  19  20  21  22  24  25  26 0
 3-21G
 ****
 27  35  36  37  38  39  40  41  42  43  44  45 0
 3-21G
 ****


