%nproc=1
%NoSave
%Mem=1900MB
#P OB98/GEN NMR

erre ene a

0 1
  C     -119.599      17.042     -33.468
  O     -119.496      18.361     -32.978
  H     -120.594      16.658     -33.229
  H     -118.851      16.410     -32.980
  H     -119.459      17.005     -34.552
  P     -118.344      19.309     -33.556
  C     -116.894      18.634     -31.530
  O     -116.946      18.812     -32.941
  C     -115.464      18.415     -31.035
  O     -114.922      17.200     -31.597
  C     -114.520      19.539     -31.467
  O     -114.519      20.683     -30.633
  C     -113.166      18.837     -31.435
  O     -112.604      18.866     -30.113
  C     -113.518      17.403     -31.837
  N     -110.036      15.787     -35.209
  C     -109.897      16.006     -33.853
  N     -108.658      15.827     -33.343
  N     -110.879      16.383     -33.079
  C     -112.037      16.615     -33.743
  C     -112.291      16.447     -35.086
  C     -111.209      15.975     -35.926
  O     -111.279      15.773     -37.134
  N     -113.588      16.779     -35.398
  C     -114.091      17.218     -34.261
  N     -113.196      17.113     -33.222
  O     -118.582      20.699     -32.792
  O     -118.357      19.502     -35.043
  H     -112.611      19.788     -29.797
  H     -118.241      21.436     -33.330
  H     -109.252      15.470     -35.752
  H     -115.100      17.594     -34.130
  H     -112.980      16.670     -31.221
  H     -112.443      19.324     -32.097
  H     -107.848      15.652     -33.919
  H     -114.729      19.836     -32.500
  H     -108.456      16.228     -32.426
  H     -115.474      18.291     -29.945
  H     -117.507      17.760     -31.301
  H     -117.347      19.490     -31.023
  P     -114.446      22.146     -31.279
  C     -112.232      22.612     -29.991
  O     -112.910      22.604     -31.229
  O     -115.154      23.058     -30.172
  O     -115.102      22.278     -32.611
  H     -116.091      23.201     -30.401
  H     -111.225      22.941     -30.138
  H     -112.228      21.624     -29.580
  H     -112.729      23.277     -29.316

 6  7  8  9  10  11  12  13  14  15  26  29  33  34 0
 6-311+G(2d,p)
 ****
 36  38  39  40  41 0
 6-311+G(2d,p)
 ****
 1  2  3  4  5  16  17  18  19  20  21  22  23  24  25 0
 3-21G
 ****
 27  28  30  31  32  35  37  42  43  44  45  46  47 0
 3-21G
 ****
 48  49 0
 3-21G
 ****


