%nproc=1
%NoSave
%Mem=1900MB
#P OB98/GEN NMR

erre ene a

0 1
  C       12.986      18.091     314.729
  O       12.467      17.991     313.416
  H       12.845      19.116     315.087
  H       14.056      17.867     314.743
  H       12.456      17.408     315.398
  P       12.696      16.623     312.612
  C       13.814      17.919     310.672
  O       13.949      16.895     311.652
  C       15.045      18.820     310.684
  O       15.138      19.524     311.937
  C       16.353      18.051     310.542
  O       16.554      17.640     309.205
  C       17.342      19.069     311.071
  O       17.661      20.053     310.077
  C       16.543      19.701     312.235
  N       16.880      19.123     313.531
  C       17.677      19.913     314.366
  O       18.049      21.027     314.003
  N       18.049      19.405     315.586
  C       17.649      18.226     315.948
  N       18.052      17.780     317.168
  C       16.798      17.368     315.102
  C       16.458      17.872     313.917
  O       11.503      16.038     311.922
  O       13.296      15.634     313.719
  H       18.255      19.606     309.442
  H       12.579      15.155     314.175
  H       16.483      16.393     315.447
  H       15.831      17.307     313.234
  H       16.722      20.782     312.284
  H       18.273      18.599     311.382
  H       16.357      17.191     311.218
  H       14.936      19.564     309.884
  H       18.646      18.400     317.711
  H       12.921      18.499     310.929
  H       17.733      16.923     317.588
  H       13.672      17.487     309.675
  P       16.465      16.088     308.807
  C       18.800      16.445     307.769
  O       17.986      15.616     308.595
  O       15.532      15.770     307.687
  O       16.061      15.381     310.188
  H       15.113      15.544     310.412
  H       19.784      16.029     307.705
  H       18.855      17.426     308.192
  H       18.373      16.502     306.790

 6  7  8  9  10  11  12  13  14  15  16  26  30  31  32  33  35 0
 6-311+G(2d,p)
 ****
 37  38 0
 6-311+G(2d,p)
 ****
 1  2  3  4  5  17  18  19  20  21  22  23  24  25 0
 3-21G
 ****
 27  28  29  34  36  39  40  41  42  43  44  45  46 0
 3-21G
 ****


