%nproc=1
%NoSave
%Mem=1900MB
#P OB98/GEN NMR

erre ene a

0 1
  C      203.404     140.871     274.663
  O      202.696     141.639     273.703
  P      201.638     142.718     274.255
  C      203.561     144.361     274.843
  O      202.432     143.632     275.307
  C      203.611     145.766     275.451
  O      204.859     146.397     275.076
  C      202.466     146.675     275.001
  O      202.091     147.488     276.118
  C      203.106     147.554     273.943
  O      202.415     148.795     273.797
  C      204.539     147.671     274.480
  N      205.492     148.026     273.434
  C      205.559     149.374     273.064
  O      204.776     150.183     273.562
  N      206.465     149.756     272.110
  C      207.172     148.858     271.499
  N      208.060     149.288     270.562
  C      207.046     147.411     271.772
  C      206.214     147.072     272.752
  O      200.678     141.838     275.182
  O      200.888     143.451     273.191
  H      202.916     149.352     273.165
  H      199.766     142.190     275.172
  H      207.635     146.701     271.206
  H      206.080     146.037     273.038
  H      204.596     148.430     275.273
  H      203.099     147.040     272.975
  H      201.594     146.120     274.643
  H      203.609     145.665     276.542
  H      208.115     150.282     270.382
  H      203.501     144.460     273.751
  H      208.651     148.661     270.034
  H      204.477     143.804     275.081
  P      200.529     147.781     276.330
  C      200.244     145.355     277.118
  O      199.817     146.350     276.206
  O      200.136     148.456     274.929
  O      200.122     148.641     277.479
  H      199.207     148.746     274.954
  H      199.590     144.483     277.015
  H      200.178     145.721     278.147
  H      201.268     145.051     276.888
  H      204.069     140.199     274.162
  H      202.710     140.312     275.255
  H      203.968     141.524     275.296

 3  4  5  6  7  8  9  10  11  12  13  21  23  27  28  29  30  32 0
 6-311+G(2d,p)
 ****
 34  35 0
 6-311+G(2d,p)
 ****
 1  2  14  15  16  17  18  19  20  22  24  25  26 0
 3-21G
 ****
 31  33  36  37  38  39  40  41  42  43  44  45  46 0
 3-21G
 ****


