%nproc=1
%NoSave
%Mem=1900MB
#P OB98/GEN NMR

erre ene a

0 1
  C     -125.413     415.407    -360.550
  O     -125.133     414.540    -359.450
  P     -124.018     415.033    -358.406
  C     -123.073     412.621    -358.211
  O     -123.564     413.768    -357.529
  C     -122.745     411.517    -357.204
  O     -121.927     412.010    -356.115
  C     -123.977     410.916    -356.539
  O     -124.659     410.048    -357.424
  C     -123.344     410.224    -355.337
  O     -122.762     408.967    -355.727
  C     -122.231     411.209    -354.945
  N     -124.333     411.414    -350.285
  C     -124.102     410.385    -351.124
  N     -123.538     410.415    -352.356
  C     -123.186     411.669    -352.686
  C     -123.354     412.817    -351.930
  C     -123.964     412.659    -350.673
  N     -124.208     413.713    -349.824
  N     -122.870     413.919    -352.609
  C     -122.441     413.445    -353.762
  N     -122.601     412.089    -353.850
  O     -124.849     415.936    -357.381
  O     -122.905     415.797    -359.042
  H     -121.952     409.173    -356.237
  H     -124.628     416.878    -357.507
  H     -124.413     409.407    -350.772
  H     -122.010     414.044    -354.556
  H     -121.308     410.701    -354.650
  H     -124.059     410.015    -354.534
  H     -124.652     411.709    -356.202
  H     -122.184     410.733    -357.728
  H     -122.179     412.874    -358.782
  H     -124.720     413.528    -348.972
  H     -124.020     414.656    -350.137
  H     -123.829     412.286    -358.926
  P     -126.197     410.369    -357.749
  C     -127.076     407.964    -358.009
  O     -126.654     409.136    -358.682
  O     -126.071     411.570    -358.789
  O     -127.053     410.623    -356.552
  H     -125.391     411.391    -359.467
  H     -127.382     407.230    -358.755
  H     -127.924     408.191    -357.354
  H     -126.249     407.553    -357.427
  H     -126.168     414.967    -361.168
  H     -124.522     415.553    -361.125
  H     -125.758     416.350    -360.182

 3  4  5  6  7  8  9  10  11  12  22  25  29  30  31  32 0
 6-311+G(2d,p)
 ****
 33  36  37 0
 6-311+G(2d,p)
 ****
 1  2  13  14  15  16  17  18  19  20  21  23  24  26 0
 3-21G
 ****
 27  28  34  35  38  39  40  41  42  43  44  45  46  47  48 0
 3-21G
 ****


