%nproc=1
%NoSave
%Mem=1900MB
#P OB98/GEN NMR

erre ene a

0 1
  C       24.422    -185.099     -56.278
  O       23.619    -185.979     -55.519
  H       24.065    -184.075     -56.128
  H       24.350    -185.345     -57.342
  H       25.465    -185.160     -55.953
  P       23.978    -187.540     -55.601
  C       25.462    -186.961     -53.552
  O       24.632    -187.928     -54.180
  C       25.177    -186.912     -52.048
  O       23.833    -186.389     -51.840
  C       25.252    -188.280     -51.355
  O       25.830    -188.109     -50.054
  C       23.790    -188.670     -51.199
  O       23.594    -189.613     -50.150
  C       23.160    -187.302     -50.950
  N       18.699    -188.040     -48.734
  C       19.975    -188.055     -48.207
  N       20.086    -188.308     -46.882
  N       21.054    -187.844     -48.914
  C       20.796    -187.573     -50.221
  C       19.582    -187.542     -50.868
  C       18.397    -187.800     -50.073
  O       17.241    -187.821     -50.490
  N       19.742    -187.268     -52.207
  C       21.046    -187.138     -52.363
  N       21.729    -187.310     -51.185
  O       25.227    -187.585     -56.605
  O       22.869    -188.432     -56.046
  H       23.862    -189.185     -49.309
  H       25.248    -188.424     -57.097
  H       17.906    -188.222     -48.149
  H       21.549    -186.924     -53.298
  H       23.312    -186.956     -49.919
  H       23.416    -189.107     -52.133
  H       19.300    -188.449     -46.268
  H       25.824    -189.026     -51.915
  H       21.017    -188.309     -46.475
  H       25.866    -186.197     -51.586
  H       25.264    -185.978     -53.992
  H       26.512    -187.222     -53.722
  P       27.423    -188.235     -49.924
  C       27.768    -185.716     -49.390
  O       27.960    -187.060     -48.969
  O       27.937    -187.792     -51.382
  O       27.895    -189.610     -49.583
  H       28.265    -188.574     -51.864
  H       28.175    -185.051     -48.657
  H       26.722    -185.524     -49.504
  H       28.263    -185.561     -50.326

 6  7  8  9  10  11  12  13  14  15  26  29  33  34 0
 6-311+G(2d,p)
 ****
 36  38  39  40  41 0
 6-311+G(2d,p)
 ****
 1  2  3  4  5  16  17  18  19  20  21  22  23  24  25 0
 3-21G
 ****
 27  28  30  31  32  35  37  42  43  44  45  46  47 0
 3-21G
 ****
 48  49 0
 3-21G
 ****


