%nproc=1
%NoSave
%Mem=1900MB
#P OB98/GEN NMR

erre ene a

0 1
  C     -943.585     130.300    -446.825
  O     -944.549     131.055    -446.079
  P     -946.138     130.761    -446.132
  C     -946.526     130.181    -443.637
  O     -946.761     131.112    -444.685
  C     -946.424     130.904    -442.281
  O     -945.203     131.694    -442.247
  C     -947.514     131.925    -441.990
  O     -948.760     131.295    -441.665
  C     -946.891     132.729    -440.855
  O     -947.110     132.082    -439.579
  C     -945.392     132.695    -441.221
  N     -944.888     133.997    -441.648
  C     -944.360     134.816    -440.657
  O     -944.392     134.482    -439.476
  N     -943.798     136.024    -441.047
  C     -943.881     136.397    -442.298
  N     -943.302     137.593    -442.599
  C     -944.566     135.610    -443.337
  C     -945.046     134.435    -442.955
  O     -946.480     129.382    -446.616
  O     -946.736     131.870    -447.113
  H     -947.559     131.545    -447.514
  H     -946.590     132.569    -438.916
  H     -944.650     136.002    -444.341
  H     -945.544     133.796    -443.662
  H     -944.801     132.343    -440.341
  H     -947.316     133.721    -440.781
  H     -947.660     132.567    -442.881
  H     -946.373     130.144    -441.484
  H     -942.837     138.103    -441.849
  H     -945.596     129.643    -443.834
  H     -943.287     137.984    -443.549
  H     -947.345     129.436    -443.623
  P     -950.034     132.254    -441.571
  C     -951.523     131.299    -443.496
  O     -951.308     131.419    -442.082
  O     -949.812     133.341    -442.717
  O     -950.233     132.894    -440.218
  H     -950.092     134.209    -442.385
  H     -952.066     130.384    -443.691
  H     -950.579     131.308    -444.037
  H     -952.140     132.150    -443.819
  H     -942.604     130.679    -446.627
  H     -943.796     130.386    -447.870
  H     -943.635     129.272    -446.534

 3  4  5  6  7  8  9  10  11  12  13  24  27  28  29  30  32 0
 6-311+G(2d,p)
 ****
 34  35 0
 6-311+G(2d,p)
 ****
 1  2  14  15  16  17  18  19  20  21  22  23  25  26 0
 3-21G
 ****
 31  33  36  37  38  39  40  41  42  43  44  45  46 0
 3-21G
 ****


