%nproc=1
%NoSave
%Mem=1900MB
#P OB98/GEN NMR

erre ene a

0 1
  C      547.405     -72.933    -150.697
  O      548.757     -72.513    -150.866
  P      549.392     -72.370    -152.334
  C      551.380     -70.983    -151.517
  O      550.981     -72.166    -152.203
  C      551.685     -71.217    -150.027
  O      552.395     -72.464    -149.831
  C      552.515     -70.117    -149.362
  O      552.055     -70.044    -148.008
  C      553.921     -70.689    -149.424
  O      554.805     -70.068    -148.508
  C      553.637     -72.178    -149.173
  N      554.721     -73.034    -149.653
  C      555.515     -73.650    -148.688
  O      555.331     -73.417    -147.492
  N      556.530     -74.481    -149.093
  C      556.786     -74.605    -150.363
  N      557.825     -75.419    -150.706
  C      556.030     -73.902    -151.416
  C      555.014     -73.151    -150.988
  O      548.710     -71.376    -153.215
  O      549.263     -73.846    -152.953
  H      555.599     -70.641    -148.405
  H      549.162     -73.782    -153.921
  H      556.297     -74.010    -152.456
  H      554.389     -72.598    -151.682
  H      553.499     -72.363    -148.101
  H      554.330     -70.547    -150.430
  H      552.430     -69.146    -149.854
  H      550.717     -71.317    -149.513
  H      558.340     -75.859    -149.953
  H      550.580     -70.243    -151.607
  H      558.177     -75.490    -151.646
  H      552.267     -70.569    -152.014
  P      550.958     -68.975    -147.537
  C      549.256     -70.212    -146.090
  O      550.443     -69.443    -146.097
  O      549.879     -68.707    -148.531
  O      551.797     -67.645    -147.216
  H      551.188     -66.883    -147.193
  H      549.118     -70.644    -145.090
  H      549.303     -71.013    -146.823
  H      548.398     -69.570    -146.314
  H      547.170     -72.966    -149.654
  H      547.278     -73.906    -151.123
  H      546.753     -72.241    -151.188

 3  4  5  6  7  8  9  10  11  12  13  23  27  28  29  30  32 0
 6-311+G(2d,p)
 ****
 34  35 0
 6-311+G(2d,p)
 ****
 1  2  14  15  16  17  18  19  20  21  22  24  25  26 0
 3-21G
 ****
 31  33  36  37  38  39  40  41  42  43  44  45  46 0
 3-21G
 ****


