%nproc=1
%NoSave
%Mem=1900MB
#P OB98/GEN NMR

erre ene a

0 1
  C     -274.602     423.432    -490.661
  O     -274.257     422.774    -489.462
  H     -274.238     422.840    -491.504
  H     -274.128     424.416    -490.697
  H     -275.686     423.538    -490.746
  P     -274.830     423.383    -488.093
  C     -273.055     422.805    -486.289
  O     -274.281     422.447    -486.908
  C     -272.442     421.594    -485.582
  O     -273.286     421.236    -484.454
  C     -272.308     420.360    -486.477
  O     -271.083     419.696    -486.157
  C     -273.481     419.488    -486.070
  O     -273.255     418.104    -486.335
  C     -273.628     419.844    -484.582
  N     -274.976     419.569    -484.099
  C     -275.209     418.289    -483.584
  O     -274.304     417.455    -483.562
  N     -276.473     417.967    -483.161
  C     -277.441     418.816    -483.316
  N     -278.677     418.426    -482.905
  C     -277.255     420.153    -483.918
  C     -276.007     420.461    -484.276
  O     -276.388     423.025    -488.150
  O     -274.588     424.842    -487.892
  H     -273.993     417.589    -485.938
  H     -276.924     423.702    -487.697
  H     -278.097     420.814    -484.050
  H     -275.776     421.415    -484.731
  H     -272.913     419.269    -483.978
  H     -274.377     419.796    -486.623
  H     -272.323     420.601    -487.545
  H     -271.469     421.888    -485.171
  H     -278.769     417.495    -482.513
  H     -273.244     423.590    -485.549
  H     -279.509     418.986    -483.018
  H     -272.365     423.193    -487.047
  P     -269.788     420.124    -487.000
  C     -268.392     417.965    -486.623
  O     -268.518     419.361    -486.385
  O     -269.562     421.648    -486.576
  O     -269.960     419.979    -488.476
  H     -269.792     422.241    -487.316
  H     -267.502     417.602    -486.153
  H     -268.337     417.786    -487.677
  H     -269.242     417.456    -486.218

 6  7  8  9  10  11  12  13  14  15  16  26  30  31  32  33  35 0
 6-311+G(2d,p)
 ****
 37  38 0
 6-311+G(2d,p)
 ****
 1  2  3  4  5  17  18  19  20  21  22  23  24  25 0
 3-21G
 ****
 27  28  29  34  36  39  40  41  42  43  44  45  46 0
 3-21G
 ****


