%nproc=1
%NoSave
%Mem=1900MB
#P OB98/GEN NMR

erre ene a

0 1
  C     -846.176    -892.420    -247.509
  O     -846.536    -893.730    -247.206
  P     -845.430    -894.780    -246.677
  C     -843.076    -895.570    -247.576
  O     -844.353    -894.990    -247.850
  C     -842.891    -896.780    -248.515
  O     -843.353    -896.460    -249.842
  C     -841.401    -897.150    -248.609
  O     -841.081    -898.170    -247.673
  C     -841.272    -897.580    -250.057
  O     -841.732    -898.960    -250.210
  C     -842.253    -896.600    -250.763
  N     -841.750    -895.270    -251.137
  C     -840.531    -895.120    -251.753
  O     -839.815    -896.050    -252.095
  N     -840.132    -893.820    -251.986
  C     -840.863    -892.690    -251.689
  O     -840.407    -891.550    -251.668
  C     -842.250    -892.930    -251.266
  C     -842.613    -894.170    -250.973
  O     -846.215    -896.170    -246.638
  O     -844.796    -894.440    -245.355
  H     -841.152    -899.510    -249.689
  H     -846.511    -896.370    -245.735
  H     -839.191    -893.690    -252.326
  H     -842.905    -892.050    -251.156
  H     -843.639    -894.360    -250.641
  H     -842.651    -897.070    -251.695
  H     -840.241    -897.570    -250.379
  H     -840.781    -896.270    -248.434
  H     -843.455    -897.610    -248.118
  H     -843.008    -895.860    -246.529
  H     -842.290    -894.820    -247.760
  P     -839.536    -898.540    -247.401
  C     -837.592    -899.350    -248.860
  O     -838.971    -899.040    -248.806
  O     -839.300    -899.450    -246.224
  O     -838.851    -897.100    -247.187
  H     -838.771    -896.900    -246.223
  H     -837.357    -899.840    -249.799
  H     -837.312    -900.000    -248.020
  H     -837.027    -898.390    -248.780
  H     -847.038    -891.881    -247.841
  H     -845.437    -892.423    -248.283
  H     -845.775    -891.949    -246.636

 3  4  5  6  7  8  9  10  11  12  13  23  28  29  30  31  32 0
 6-311+G(2d,p)
 ****
 33  34 0
 6-311+G(2d,p)
 ****
 1  2  14  15  16  17  18  19  20  21  22  24  25  26  27 0
 3-21G
 ****
 35  36  37  38  39  40  41  42  43  44  45 0
 3-21G
 ****


