%nproc=1
%NoSave
%Mem=1900MB
#P OB98/GEN NMR

erre ene a

0 1
  C     -130.207    -125.291     581.875
  O     -128.916    -125.288     582.460
  H     -130.508    -126.327     581.693
  H     -130.202    -124.759     580.919
  H     -130.929    -124.828     582.552
  P     -128.188    -123.879     582.680
  C     -127.525    -123.263     580.257
  O     -128.435    -123.051     581.332
  C     -127.264    -121.948     579.525
  O     -128.478    -121.468     578.914
  C     -126.792    -120.833     580.445
  O     -125.435    -121.008     580.797
  C     -127.097    -119.615     579.596
  O     -126.083    -119.403     578.604
  C     -128.436    -120.022     578.937
  N     -129.594    -119.474     579.632
  C     -129.883    -118.129     579.379
  O     -129.184    -117.477     578.607
  N     -130.950    -117.557     580.029
  C     -131.670    -118.262     580.841
  N     -132.709    -117.632     581.454
  C     -131.410    -119.685     581.125
  C     -130.365    -120.222     580.495
  O     -126.758    -123.919     583.127
  O     -129.127    -123.131     583.741
  H     -125.239    -119.338     579.095
  H     -128.841    -123.333     584.652
  H     -132.040    -120.236     581.807
  H     -130.104    -121.265     580.646
  H     -128.470    -119.687     577.894
  H     -127.162    -118.713     580.200
  H     -127.422    -120.791     581.339
  H     -126.536    -122.136     578.725
  H     -132.846    -116.653     581.237
  H     -127.986    -123.988     579.580
  H     -133.389    -118.101     582.033
  H     -126.581    -123.683     580.626
  P     -124.875    -120.453     582.193
  C     -124.650    -118.201     580.953
  O     -125.096    -118.863     582.137
  O     -123.498    -120.896     582.550
  O     -125.989    -120.929     583.244
  H     -125.927    -121.898     583.422
  H     -124.850    -117.153     581.033
  H     -125.168    -118.599     580.105
  H     -123.598    -118.355     580.833

 6  7  8  9  10  11  12  13  14  15  16  26  30  31  32  33  35 0
 6-311+G(2d,p)
 ****
 37  38 0
 6-311+G(2d,p)
 ****
 1  2  3  4  5  17  18  19  20  21  22  23  24  25 0
 3-21G
 ****
 27  28  29  34  36  39  40  41  42  43  44  45  46 0
 3-21G
 ****


