%nproc=1
%NoSave
%Mem=1900MB
#P OB98/GEN NMR

erre ene a

0 1
  C     -536.237     527.826    -220.764
  O     -535.692     526.687    -220.114
  P     -535.831     525.265    -220.861
  C     -533.260     524.723    -220.712
  O     -534.397     524.983    -221.523
  C     -531.989     525.251    -221.395
  O     -532.122     526.659    -221.650
  C     -530.717     525.100    -220.575
  O     -530.234     523.770    -220.585
  C     -529.812     526.121    -221.242
  O     -529.247     525.565    -222.450
  C     -530.803     527.246    -221.585
  N     -530.752     528.368    -220.652
  C     -530.217     529.559    -221.132
  O     -529.794     529.688    -222.275
  N     -530.159     530.590    -220.227
  C     -530.516     530.534    -218.916
  O     -530.397     531.476    -218.137
  C     -531.051     529.244    -218.449
  C     -531.145     528.231    -219.329
  O     -536.770     525.673    -222.087
  O     -536.362     524.191    -219.976
  H     -536.665     526.615    -222.337
  H     -528.610     524.876    -222.159
  H     -529.791     531.471    -220.560
  H     -531.334     529.146    -217.416
  H     -531.521     527.273    -219.006
  H     -530.598     527.641    -222.603
  H     -528.974     526.433    -220.600
  H     -530.908     525.410    -219.529
  H     -531.885     524.741    -222.363
  H     -533.173     523.640    -220.567
  H     -533.393     525.203    -219.735
  P     -530.656     522.827    -219.350
  C     -532.142     521.239    -220.802
  O     -532.069     522.177    -219.748
  O     -531.025     523.924    -218.244
  O     -529.594     521.872    -218.937
  H     -531.532     524.677    -218.606
  H     -533.067     520.660    -220.687
  H     -531.298     520.554    -220.796
  H     -532.174     521.772    -221.766
  H     -536.074     528.694    -220.159
  H     -537.288     527.685    -220.910
  H     -535.760     527.958    -221.713

 3  4  5  6  7  8  9  10  11  12  13  24  28  29  30  31  32 0
 6-311+G(2d,p)
 ****
 33  34 0
 6-311+G(2d,p)
 ****
 1  2  14  15  16  17  18  19  20  21  22  23  25  26  27 0
 3-21G
 ****
 35  36  37  38  39  40  41  42  43  44  45 0
 3-21G
 ****


