%nproc=1
%NoSave
%Mem=1900MB
#P OB98/GEN NMR

erre ene a

0 1
  C      476.047    -268.867    -298.306
  O      476.731    -269.955    -298.958
  P      478.045    -270.543    -298.243
  C      479.926    -268.808    -298.674
  O      479.293    -269.999    -299.110
  C      481.332    -268.697    -299.282
  O      482.131    -269.809    -298.860
  C      481.342    -268.756    -300.827
  O      481.030    -267.492    -301.408
  C      482.814    -269.137    -301.089
  O      483.617    -267.945    -301.022
  C      483.125    -270.064    -299.896
  N      485.212    -274.629    -299.194
  C      485.559    -273.421    -298.644
  N      486.592    -273.399    -297.775
  N      484.942    -272.294    -298.945
  C      483.913    -272.455    -299.801
  C      483.498    -273.605    -300.424
  C      484.210    -274.840    -300.125
  O      483.997    -275.918    -300.636
  N      482.389    -273.375    -301.209
  C      482.131    -272.080    -301.065
  N      483.070    -271.474    -300.240
  O      477.966    -272.090    -298.601
  O      478.133    -270.312    -296.768
  H      483.513    -267.491    -301.893
  H      478.471    -272.620    -297.925
  H      485.710    -275.466    -298.924
  H      481.313    -271.558    -301.523
  H      484.110    -269.840    -299.472
  H      482.956    -269.583    -302.062
  H      487.007    -274.248    -297.417
  H      480.706    -269.571    -301.205
  H      486.825    -272.526    -297.329
  H      481.792    -267.768    -298.943
  H      480.028    -268.828    -297.575
  H      479.336    -267.948    -298.955
  P      479.903    -267.535    -302.574
  C      481.475    -268.416    -304.454
  O      480.735    -267.326    -303.932
  O      479.128    -266.142    -302.358
  O      478.991    -268.716    -302.525
  H      478.242    -266.205    -302.710
  H      480.953    -269.368    -304.305
  H      482.463    -268.455    -303.998
  H      481.599    -268.261    -305.540
  H      475.197    -268.579    -298.889
  H      476.712    -268.034    -298.209
  H      475.724    -269.180    -297.335

 3  4  5  6  7  8  9  10  11  12  23  26  30  31  33  0
 6-311+G(2d,p)
 ****
 35  36  37  38 0
 6-311+G(2d,p)
 ****
 1  2  13  14  15  16  17  18  19  20  21  22  24  25  27  28  29 0
 3-21G
 ****
 32  34  39  40  41  42  43  44  45  46  47  48  49 0
 3-21G
 ****


