%nproc=1
%NoSave
%Mem=1900MB
#P OB98/GEN NMR

erre ene a

0 1
  C     -205.301     -30.413     206.309
  O     -205.043     -29.419     207.281
  H     -205.085     -31.406     206.714
  H     -206.357     -30.366     206.030
  H     -204.692     -30.233     205.418
  P     -203.563     -29.395     207.898
  C     -204.543     -30.027     210.213
  O     -203.599     -30.336     209.200
  C     -205.158     -31.307     210.767
  O     -205.717     -32.095     209.697
  C     -204.175     -32.230     211.476
  O     -203.891     -31.789     212.798
  C     -204.966     -33.532     211.479
  O     -205.925     -33.514     212.551
  C     -205.689     -33.481     210.125
  N     -205.094     -38.196     208.177
  C     -205.812     -37.738     209.230
  N     -205.914     -36.478     209.695
  C     -205.187     -35.632     208.947
  C     -204.408     -35.951     207.846
  C     -204.369     -37.303     207.466
  N     -203.622     -37.760     206.403
  N     -203.817     -34.821     207.322
  C     -204.230     -33.835     208.092
  N     -205.057     -34.277     209.092
  O     -203.438     -27.920     208.513
  O     -202.462     -29.679     206.932
  H     -206.437     -32.688     212.457
  H     -202.522     -27.606     208.398
  H     -206.385     -38.490     209.768
  H     -203.966     -32.793     207.959
  H     -206.732     -33.808     210.215
  H     -204.337     -34.415     211.616
  H     -203.260     -32.363     210.890
  H     -205.979     -31.023     211.439
  H     -205.337     -29.401     209.792
  H     -203.790     -38.692     206.060
  H     -203.088     -37.081     205.869
  H     -204.038     -29.471     211.010
  P     -202.428     -31.184     213.076
  C     -202.382     -32.531     215.293
  O     -201.716     -32.221     214.073
  O     -202.732     -29.922     214.012
  O     -201.656     -30.803     211.858
  H     -202.012     -29.265     213.925
  H     -201.795     -33.230     215.852
  H     -203.338     -32.960     215.078
  H     -202.513     -31.636     215.865

 6  7  8  9  10  11  12  13  14  15  25  28  32  33  34  35 0
 6-311+G(2d,p)
 ****
 36  39  40 0
 6-311+G(2d,p)
 ****
 1  2  3  4  5  16  17  18  19  20  21  22  23  24 0
 3-21G
 ****
 26  27  29  30  31  37  38  41  42  43  44  45  46  47  48 0
 3-21G
 ****


