%nproc=1
%NoSave
%Mem=1900MB
#P OB98/GEN NMR

erre ene a

0 1
  C     -654.796     -91.462     989.598
  O     -656.031     -91.955     989.148
  H     -654.655     -91.766     990.638
  H     -654.795     -90.366     989.552
  H     -653.971     -91.852     988.999
  P     -656.368     -91.905     987.577
  C     -657.209     -94.337     987.849
  O     -657.470     -93.038     987.304
  C     -658.512     -95.022     988.277
  O     -658.990     -94.404     989.507
  C     -659.637     -94.900     987.237
  O     -660.451     -96.093     987.356
  C     -660.408     -93.691     987.741
  O     -661.695     -93.635     987.194
  C     -660.320     -93.917     989.258
  N     -660.607     -92.699     990.020
  C     -661.496     -92.832     991.088
  O     -662.060     -93.905     991.368
  N     -661.773     -91.693     991.783
  C     -661.297     -90.446     991.497
  O     -661.601     -89.447     992.137
  C     -660.397     -90.354     990.339
  C     -660.100     -91.461     989.664
  O     -655.189     -91.945     986.659
  O     -657.215     -90.553     987.391
  H     -661.673     -93.229     986.291
  H     -657.062     -90.179     986.503
  H     -662.412     -91.768     992.568
  H     -660.015     -89.381     990.069
  H     -659.435     -91.430     988.798
  H     -661.030     -94.689     989.578
  H     -659.886     -92.761     987.464
  H     -659.280     -94.796     986.209
  H     -658.283     -96.079     988.508
  H     -656.553     -94.198     988.724
  H     -656.686     -94.943     987.110
  P     -660.125     -97.424     986.519
  C     -659.733     -98.692     988.740
  O     -660.401     -98.701     987.477
  O     -658.791     -97.427     985.854
  O     -661.301     -97.525     985.443
  H     -660.969     -98.001     984.646
  H     -659.987     -99.577     989.284
  H     -660.037     -97.831     989.298
  H     -658.675     -98.661     988.584

 6  7  8  9  10  11  12  13  14  15  16  26  31  32  33  34  35 0
 6-311+G(2d,p)
 ****
 36  37 0
 6-311+G(2d,p)
 ****
 1  2  3  4  5  17  18  19  20  21  22  23  24  25 0
 3-21G
 ****
 27  28  29  30  38  39  40  41  42  43  44  45 0
 3-21G
 ****


