%nproc=1
%NoSave
%Mem=1900MB
#P OB98/GEN NMR

erre ene a

0 1
  C     1325.237     569.944     889.662
  O     1325.178     569.207     890.908
  P     1323.811     569.245     891.759
  C     1323.070     566.808     891.337
  O     1322.756     568.177     891.132
  C     1321.873     565.919     890.952
  O     1320.676     566.262     891.743
  C     1321.475     566.068     889.443
  O     1320.957     564.837     888.947
  C     1320.289     567.071     889.550
  O     1319.491     566.981     888.360
  C     1319.638     566.582     890.849
  N     1315.089     568.981     890.556
  C     1315.590     567.932     889.866
  N     1316.796     567.342     890.027
  C     1317.495     567.910     891.017
  C     1317.085     568.969     891.843
  C     1315.830     569.494     891.584
  N     1315.298     570.552     892.296
  N     1318.099     569.286     892.760
  C     1319.089     568.465     892.465
  N     1318.757     567.591     891.399
  O     1323.226     570.589     891.991
  O     1324.200     568.529     893.156
  H     1318.748     567.554     888.457
  H     1323.853     569.059     893.884
  H     1314.970     567.514     889.086
  H     1320.023     568.495     892.973
  H     1319.026     565.671     890.695
  H     1320.686     568.063     889.676
  H     1322.269     566.433     888.815
  H     1322.108     564.881     891.176
  H     1323.308     566.625     892.400
  H     1314.442     570.961     891.986
  H     1315.872     571.085     892.939
  H     1323.970     566.542     890.765
  P     1322.053     563.866     888.276
  C     1321.077     561.814     889.651
  O     1322.232     562.628     889.243
  O     1323.316     564.583     887.871
  O     1321.228     563.283     887.027
  H     1320.367     562.898     887.240
  H     1321.459     560.991     890.217
  H     1320.585     561.515     888.743
  H     1320.437     562.461     890.287
  H     1326.203     569.820     889.220
  H     1325.063     570.982     889.853
  H     1324.488     569.574     888.993

 3  4  5  6  7  8  9  10  11  12  22  25  29  30  31  32 0
 6-311+G(2d,p)
 ****
 33  36  37 0
 6-311+G(2d,p)
 ****
 1  2  13  14  15  16  17  18  19  20  21  23  24  26 0
 3-21G
 ****
 27  28  34  35  38  39  40  41  42  43  44  45  46  47  48 0
 3-21G
 ****


