%nproc=1
%NoSave
%Mem=1900MB
#P OB98/GEN NMR

erre ene a

0 1
  C        7.182    -256.842     229.762
  O        7.829    -256.277     228.643
  H        6.602    -256.058     230.259
  H        7.915    -257.230     230.472
  H        6.500    -257.639     229.452
  P        8.791    -257.197     227.745
  C        9.794    -256.916     225.398
  O        9.285    -256.246     226.543
  C       10.123    -255.927     224.280
  O        8.902    -255.283     223.826
  C       11.098    -254.817     224.705
  O       12.121    -254.667     223.716
  C       10.231    -253.568     224.731
  O       10.975    -252.367     224.558
  C        9.222    -253.894     223.625
  N        8.047    -253.036     223.684
  C        8.221    -251.715     223.254
  O        9.323    -251.339     222.849
  N        7.169    -250.847     223.344
  C        6.048    -251.241     223.864
  N        5.054    -250.321     223.953
  C        5.829    -252.618     224.357
  C        6.857    -253.456     224.233
  O        8.192    -258.493     227.318
  O       10.120    -257.377     228.619
  H       11.673    -252.331     225.247
  H       10.596    -258.185     228.316
  H        4.876    -252.899     224.788
  H        6.789    -254.485     224.569
  H        9.682    -253.792     222.632
  H        9.715    -253.509     225.699
  H       11.563    -255.002     225.671
  H       10.511    -256.489     223.420
  H        5.251    -249.387     223.608
  H        9.045    -257.644     225.058
  H        4.150    -250.506     224.357
  H       10.707    -257.448     225.686
  P       13.520    -255.392     224.030
  C       16.014    -254.693     224.193
  O       14.670    -254.271     224.019
  O       13.799    -256.245     222.704
  O       13.483    -256.258     225.243
  H       13.702    -257.195     222.898
  H       16.662    -253.842     224.163
  H       16.279    -255.371     223.409
  H       16.114    -255.184     225.138

 6  7  8  9  10  11  12  13  14  15  16  26  30  31  32  33  35 0
 6-311+G(2d,p)
 ****
 37  38 0
 6-311+G(2d,p)
 ****
 1  2  3  4  5  17  18  19  20  21  22  23  24  25 0
 3-21G
 ****
 27  28  29  34  36  39  40  41  42  43  44  45  46 0
 3-21G
 ****


