%nproc=1
%NoSave
%Mem=1900MB
#P OB98/GEN NMR

erre ene a

0 1
  C      509.768    -265.060     130.579
  O      511.125    -264.969     130.961
  H      509.189    -264.336     131.157
  H      509.382    -266.061     130.787
  H      509.645    -264.833     129.514
  P      512.221    -265.792     130.135
  C      514.370    -264.366     129.984
  O      513.654    -265.358     130.705
  C      515.417    -263.697     130.879
  O      514.735    -262.874     131.872
  C      516.321    -264.695     131.650
  O      517.588    -264.056     131.828
  C      515.565    -264.802     132.959
  O      516.304    -265.444     133.962
  C      515.204    -263.317     133.170
  N      514.205    -263.057     134.203
  C      514.644    -262.511     135.401
  O      515.817    -262.230     135.653
  N      513.675    -262.289     136.346
  C      512.348    -262.535     136.198
  O      511.514    -262.283     137.069
  C      511.937    -263.122     134.905
  C      512.870    -263.346     133.981
  O      512.088    -265.739     128.649
  O      512.056    -267.291     130.687
  H      511.551    -267.821     130.046
  H      515.762    -265.496     134.780
  H      513.980    -261.890     137.219
  H      510.891    -263.335     134.757
  H      512.609    -263.764     133.017
  H      516.111    -262.747     133.390
  H      514.656    -265.405     132.816
  H      516.453    -265.640     131.122
  H      516.025    -263.016     130.263
  H      513.648    -263.608     129.641
  H      514.848    -264.817     129.115
  P      518.824    -264.247     130.828
  C      519.619    -262.002     131.838
  O      520.003    -263.258     131.287
  O      518.465    -264.118     129.379
  O      519.405    -265.711     131.151
  H      519.856    -266.062     130.356
  H      520.494    -261.445     132.100
  H      519.024    -262.163     132.712
  H      519.051    -261.454     131.115

 6  7  8  9  10  11  12  13  14  15  16  27  31  32  33  34  35 0
 6-311+G(2d,p)
 ****
 36  37 0
 6-311+G(2d,p)
 ****
 1  2  3  4  5  17  18  19  20  21  22  23  24  25 0
 3-21G
 ****
 26  28  29  30  38  39  40  41  42  43  44  45 0
 3-21G
 ****


