%nproc=1
%NoSave
%Mem=1900MB
#P OB98/GEN NMR

erre ene a

0 1
  C      287.399     362.934      23.668
  O      286.202     363.691      23.745
  P      284.874     362.967      24.274
  C      284.167     361.818      26.491
  O      285.236     362.218      25.647
  C      284.429     360.433      27.088
  O      284.167     359.416      26.085
  C      285.869     360.234      27.570
  O      285.875     359.375      28.717
  C      286.521     359.476      26.431
  O      287.664     358.745      26.880
  C      285.353     358.605      25.965
  N      285.819     354.510      23.043
  C      285.392     354.608      24.352
  N      285.132     353.447      24.991
  N      285.219     355.746      24.979
  C      285.526     356.823      24.212
  C      285.941     356.854      22.900
  C      286.137     355.586      22.227
  O      286.540     355.427      21.079
  N      286.114     358.136      22.459
  C      285.842     358.892      23.506
  N      285.516     358.134      24.605
  O      284.689     361.764      23.232
  O      283.663     363.832      24.312
  H      288.200     359.366      27.415
  H      283.955     361.970      22.617
  H      285.946     353.607      22.613
  H      285.890     359.969      23.532
  H      285.223     357.728      26.611
  H      286.843     360.171      25.652
  H      285.310     352.536      24.590
  H      286.398     361.167      27.811
  H      284.863     353.490      25.967
  H      283.721     360.262      27.908
  H      283.246     361.788      25.908
  H      284.038     362.553      27.296
  P      287.128     359.529      29.710
  C      288.206     361.567      30.908
  O      287.362     361.100      29.877
  O      288.363     359.051      28.810
  O      287.013     358.746      30.975
  H      289.085     358.719      29.376
  H      289.065     362.078      30.466
  H      288.569     360.756      31.555
  H      287.650     362.278      31.528
  H      288.190     363.554      23.300
  H      287.256     362.107      23.005
  H      287.655     362.571      24.641

 3  4  5  6  7  8  9  10  11  12  23  26  30  31 0
 6-311+G(2d,p)
 ****
 33  35  36  37  38 0
 6-311+G(2d,p)
 ****
 1  2  13  14  15  16  17  18  19  20  21  22  24  25 0
 3-21G
 ****
 27  28  29  32  34  39  40  41  42  43  44  45  46  47  48  49 0
 3-21G
 ****


