%nproc=1
%NoSave
%Mem=1900MB
#P OB98/GEN NMR

erre ene a

0 1
  C      821.773    -290.558     334.337
  O      820.892    -290.777     335.425
  H      822.046    -291.526     333.909
  H      822.679    -290.055     334.684
  H      821.283    -289.956     333.569
  P      820.357    -289.470     336.185
  C      818.555    -290.894     337.417
  O      819.646    -289.996     337.526
  C      818.306    -291.603     338.753
  O      819.482    -292.418     339.072
  C      818.096    -290.646     339.941
  O      817.260    -291.299     340.900
  C      819.510    -290.526     340.492
  O      819.504    -289.949     341.781
  C      819.953    -291.981     340.367
  N      823.654    -295.076     342.074
  C      822.311    -295.202     342.064
  N      821.390    -294.338     341.579
  C      821.984    -293.263     341.045
  C      823.343    -292.992     340.973
  C      824.205    -293.959     341.523
  N      825.564    -293.827     341.543
  N      823.568    -291.772     340.350
  C      822.372    -291.315     340.056
  N      821.381    -292.178     340.461
  O      819.136    -288.982     335.268
  O      821.364    -288.391     336.392
  H      818.999    -289.111     341.780
  H      819.444    -288.302     334.644
  H      821.925    -296.119     342.508
  H      822.154    -290.378     339.555
  H      819.480    -292.623     341.117
  H      820.126    -289.879     339.862
  H      817.649    -289.693     339.651
  H      817.468    -292.298     338.644
  H      818.779    -291.630     336.642
  H      817.651    -290.336     337.128
  H      826.113    -294.560     341.977
  H      825.992    -292.993     341.152
  P      815.758    -290.776     341.121
  C      815.096    -293.307     341.098
  O      814.844    -292.006     341.597
  O      815.257    -290.560     339.614
  O      815.626    -289.512     341.910
  H      814.575    -289.857     339.589
  H      814.393    -293.994     341.522
  H      816.089    -293.604     341.362
  H      814.996    -293.306     340.033

 6  7  8  9  10  11  12  13  14  15  25  28  32  33  34  35 0
 6-311+G(2d,p)
 ****
 36  37  40 0
 6-311+G(2d,p)
 ****
 1  2  3  4  5  16  17  18  19  20  21  22  23  24 0
 3-21G
 ****
 26  27  29  30  31  38  39 41  42  43  44  45  46  47  48 0
 3-21G
 ****


