%nproc=1
%NoSave
%Mem=1900MB
#P OB98/GEN NMR

erre ene a

0 1
  C      179.012     660.713    1185.586
  O      179.377     660.858    1184.221
  P      180.852     660.362    1183.784
  C      182.299     662.159    1185.051
  O      181.783     661.664    1183.826
  C      183.370     663.221    1184.766
  O      184.486     662.620    1184.057
  C      182.902     664.382    1183.905
  O      182.118     665.304    1184.630
  C      184.246     664.934    1183.412
  O      184.839     665.751    1184.422
  C      185.065     663.648    1183.223
  N      185.148     663.212    1181.843
  C      186.415     663.210    1181.259
  O      187.432     663.552    1181.870
  N      186.478     662.814    1179.945
  C      185.410     662.501    1179.164
  O      185.529     662.189    1177.977
  C      184.103     662.541    1179.793
  C      184.016     662.894    1181.103
  O      180.595     660.079    1182.221
  O      181.317     659.189    1184.558
  H      179.880     660.640    1181.866
  H      184.684     665.289    1185.276
  H      187.383     662.795    1179.519
  H      183.213     662.288    1179.201
  H      183.050     662.951    1181.584
  H      186.092     663.793    1183.601
  H      184.129     665.542    1182.496
  H      182.327     663.997    1183.056
  H      183.743     663.586    1185.746
  H      182.758     661.324    1185.603
  H      181.484     662.561    1185.642
  P      180.621     665.582    1184.061
  C      181.508     667.042    1182.085
  O      180.705     666.950    1183.246
  O      179.856     665.952    1185.403
  O      180.034     664.422    1183.317
  H      180.364     666.541    1185.987
  H      181.168     667.882    1181.476
  H      181.435     666.126    1181.480
  H      182.547     667.207    1182.364
  H      178.017     661.080    1185.730
  H      179.690     661.271    1186.198
  H      179.054     659.679    1185.859

 3  4  5  6  7  8  9  10  11  12  13  24  28  29  30  31  32 0
 6-311+G(2d,p)
 ****
 33  34 0
 6-311+G(2d,p)
 ****
 1  2  14  15  16  17  18  19  20  21  22  23  25  26  27 0
 3-21G
 ****
 35  36  37  38  39  40  41  42  43  44  45 0
 3-21G
 ****


