%nproc=1
%NoSave
%Mem=1900MB
#P OB98/GEN NMR

erre ene a

0 1
  C      560.353    -104.415      70.511
  O      561.339    -103.383      70.638
  P      561.219    -101.989      69.855
  C      560.499     -99.564      70.350
  O      560.545    -100.907      70.832
  C      559.784     -98.634      71.339
  O      558.380     -98.950      71.417
  C      560.311     -98.704      72.768
  O      561.514     -97.966      72.892
  C      559.128     -98.146      73.551
  O      559.129     -96.706      73.506
  C      557.937     -98.707      72.768
  N      556.286    -100.893      77.087
  C      556.736     -99.648      76.819
  N      557.165     -99.143      75.642
  C      557.067    -100.063      74.668
  C      556.629    -101.373      74.792
  C      556.226    -101.786      76.072
  N      555.781    -103.063      76.343
  N      556.697    -102.028      73.578
  C      557.151    -101.119      72.734
  N      557.389     -99.917      73.346
  O      560.568    -102.093      68.513
  O      562.728    -101.469      69.714
  H      559.331     -96.442      72.593
  H      562.810    -100.910      68.919
  H      556.760     -98.967      77.669
  H      557.320    -101.284      71.674
  H      557.119     -97.978      72.697
  H      559.144     -98.440      74.606
  H      560.479     -99.748      73.053
  H      559.865     -97.610      70.950
  H      559.963     -99.558      69.393
  H      555.544    -103.292      77.296
  H      555.779    -103.748      75.604
  H      561.523     -99.218      70.187
  P      562.797     -98.629      73.591
  C      563.478    -101.017      72.942
  O      563.428     -99.658      72.541
  O      562.576     -99.176      74.961
  O      563.873     -97.441      73.604
  H      564.469     -97.556      74.371
  H      564.341    -101.165      73.600
  H      563.601    -101.642      72.054
  H      562.562    -101.307      73.456
  H      560.632    -105.251      71.117
  H      560.287    -104.722      69.488
  H      559.403    -104.042      70.833

 3  4  5  6  7  8  9  10  11  12  22  25  29  30  31  32 0
 6-311+G(2d,p)
 ****
 33  36  37 0
 6-311+G(2d,p)
 ****
 1  2  13  14  15  16  17  18  19  20  21  23  24  26 0
 3-21G
 ****
 27  28  34  35  38  39  40  41  42  43  44  45  46  47  48 0
 3-21G
 ****


