%nproc=1
%NoSave
%Mem=1900MB
#P OB98/GEN NMR

erre ene a

0 1
  C     -896.710     209.401    -895.769
  O     -895.930     210.114    -894.819
  H     -897.700     209.852    -895.829
  H     -896.820     208.365    -895.449
  H     -896.250     209.428    -896.759
  P     -894.390     209.722    -894.689
  C     -893.210     212.004    -895.059
  O     -893.560     210.739    -895.609
  C     -894.100     213.105    -895.649
  O     -895.500     212.850    -895.279
  C     -893.740     214.522    -895.149
  O     -893.890     215.450    -896.229
  C     -894.800     214.801    -894.099
  O     -895.030     216.193    -893.899
  C     -896.010     214.020    -894.649
  N     -896.960     213.679    -893.589
  C     -897.680     214.740    -893.039
  O     -897.510     215.899    -893.449
  N     -898.560     214.487    -892.009
  C     -898.610     213.293    -891.519
  N     -899.480     213.110    -890.469
  C     -897.820     212.150    -892.009
  C     -897.030     212.407    -893.039
  O     -894.280     208.336    -895.479
  O     -893.880     209.599    -893.279
  H     -895.160     216.598    -894.789
  H     -893.600     207.760    -895.109
  H     -897.890     211.172    -891.539
  H     -896.390     211.641    -893.479
  H     -896.520     214.602    -895.419
  H     -894.490     214.376    -893.139
  H     -892.730     214.577    -894.749
  H     -894.040     213.060    -896.739
  H     -900.000     213.908    -890.149
  H     -892.180     212.217    -895.309
  H     -899.580     212.218    -889.979
  H     -893.320     211.966    -893.969
  P     -892.540     216.104    -896.809
  C     -892.540     215.367    -899.319
  O     -892.000     215.160    -897.999
  O     -891.470     215.854    -895.629
  O     -892.690     217.560    -897.129
  H     -891.280     216.711    -895.189
  H     -892.092     214.674    -900.000
  H     -892.330     216.367    -899.637
  H     -893.599     215.214    -899.299

 6  7  8  9  10  11  12  13  14  15  16  26  30  31  32  33  35 0
 6-311+G(2d,p)
 ****
 37  38 0
 6-311+G(2d,p)
 ****
 1  2  3  4  5  17  18  19  20  21  22  23  24  25 0
 3-21G
 ****
 27  28  29  34  36  39  40  41  42  43  44  45  46 0
 3-21G
 ****


