%nproc=1
%NoSave
%Mem=1900MB
#P OB98/GEN NMR

erre ene a

0 1
  C      379.859     -37.069      42.041
  O      379.638     -38.051      41.036
  P      378.230     -38.824      41.050
  C      378.831     -41.296      41.581
  O      378.555     -40.324      40.580
  C      379.253     -42.615      40.945
  O      378.123     -43.255      40.318
  C      380.307     -42.478      39.850
  O      381.623     -42.370      40.378
  C      380.137     -43.804      39.121
  O      380.802     -44.855      39.854
  C      378.618     -44.004      39.180
  N      377.806     -44.981      34.224
  C      378.598     -45.577      35.141
  N      378.772     -45.252      36.436
  C      378.043     -44.165      36.750
  C      377.217     -43.431      35.913
  C      377.102     -43.881      34.590
  N      376.273     -43.290      33.664
  N      376.641     -42.382      36.597
  C      377.096     -42.485      37.829
  N      377.941     -43.552      37.975
  O      377.466     -38.197      39.788
  O      377.444     -38.683      42.309
  H      380.353     -44.916      40.723
  H      376.505     -38.301      39.893
  H      379.165     -46.438      34.787
  H      376.844     -41.818      38.641
  H      378.339     -45.054      39.339
  H      380.561     -43.796      38.116
  H      380.069     -41.653      39.171
  H      379.619     -43.276      41.745
  H      377.922     -41.462      42.175
  H      376.103     -43.781      32.796
  H      375.601     -42.603      33.996
  H      379.619     -40.912      42.237
  P      382.525     -41.174      39.808
  C      384.452     -42.586      38.764
  O      384.025     -41.745      39.821
  O      382.513     -40.110      41.005
  O      382.046     -40.601      38.522
  H      382.674     -39.208      40.655
  H      385.543     -42.621      38.756
  H      384.109     -42.198      37.792
  H      384.059     -43.599      38.916
  H      380.830     -36.638      41.912
  H      379.798     -37.526      43.006
  H      379.116     -36.303      41.961

 3  4  5  6  7  8  9  10  11  12  22  25  29  30  31  32 0
 6-311+G(2d,p)
 ****
 33  36  37 0
 6-311+G(2d,p)
 ****
 1  2  13  14  15  16  17  18  19  20  21  23  24  26 0
 3-21G
 ****
 27  28  34  35  38  39  40  41  42  43  44  45  46  47  48 0
 3-21G
 ****


