%nproc=1
%NoSave
%Mem=1900MB
#P OB98/GEN NMR

erre ene a

0 1
  C     -361.574     901.434     394.826
  O     -362.118     900.492     393.902
  P     -361.972     898.939     394.289
  C     -362.805     897.579     396.338
  O     -363.095     898.585     395.383
  C     -363.914     897.520     397.394
  O     -363.953     898.734     398.191
  C     -365.309     897.381     396.807
  O     -365.536     896.057     396.346
  C     -366.169     897.802     397.995
  O     -366.291     896.720     398.928
  C     -365.323     898.926     398.618
  N     -367.626     903.202     400.245
  C     -367.331     902.034     400.870
  N     -366.717     900.948     400.369
  C     -366.393     901.136     399.085
  C     -366.632     902.265     398.308
  C     -367.283     903.330     398.939
  N     -367.595     904.515     398.297
  N     -366.148     902.091     397.024
  C     -365.656     900.870     397.014
  N     -365.766     900.255     398.231
  O     -360.604     898.895     395.115
  O     -361.931     898.028     393.104
  H     -365.397     896.350     399.070
  H     -359.905     898.458     394.584
  H     -367.630     901.968     401.913
  H     -365.200     900.379     396.149
  H     -365.328     898.888     399.719
  H     -367.185     898.103     397.712
  H     -365.449     898.098     395.974
  H     -363.704     896.673     398.061
  H     -361.841     897.780     396.818
  H     -368.138     905.195     398.799
  H     -367.416     904.592     397.305
  H     -362.698     896.617     395.819
  P     -365.248     895.748     394.795
  C     -363.465     894.262     393.676
  O     -363.794     895.046     394.817
  O     -364.929     897.203     394.231
  O     -366.322     894.993     394.097
  H     -364.322     897.699     394.812
  H     -362.452     893.880     393.804
  H     -363.517     894.875     392.772
  H     -364.160     893.415     393.599
  H     -361.733     902.426     394.459
  H     -360.524     901.259     394.938
  H     -362.057     901.323     395.774

 3  4  5  6  7  8  9  10  11  12  22  25  29  30  31  32 0
 6-311+G(2d,p)
 ****
 33  36  37 0
 6-311+G(2d,p)
 ****
 1  2  13  14  15  16  17  18  19  20  21  23  24  26 0
 3-21G
 ****
 27  28  34  35  38  39  40  41  42  43  44  45  46  47  48 0
 3-21G
 ****


