%nproc=1
%NoSave
%Mem=1900MB
#P OB98/GEN NMR

erre ene a

0 1
  C     -274.262     -47.842     130.406
  O     -273.364     -47.426     129.397
  H     -273.724     -48.471     131.118
  H     -275.072     -48.426     129.964
  H     -274.672     -46.978     130.938
  P     -273.877     -46.306     128.372
  C     -271.647     -45.041     128.810
  O     -272.568     -45.533     127.848
  C     -270.351     -44.615     128.121
  O     -269.620     -45.814     127.730
  C     -270.563     -43.774     126.856
  O     -269.514     -42.802     126.780
  C     -270.385     -44.784     125.739
  O     -270.020     -44.208     124.493
  C     -269.297     -45.684     126.331
  N     -269.232     -46.992     125.683
  C     -268.691     -47.044     124.402
  O     -268.188     -46.090     123.814
  N     -268.744     -48.271     123.790
  C     -269.290     -49.408     124.309
  O     -269.325     -50.472     123.701
  C     -269.853     -49.287     125.661
  C     -269.801     -48.103     126.273
  O     -274.580     -45.236     129.330
  O     -274.784     -46.791     127.292
  H     -275.523     -45.454     129.451
  H     -269.157     -43.760     124.619
  H     -268.357     -48.327     122.861
  H     -270.305     -50.166     126.100
  H     -270.227     -47.973     127.264
  H     -268.319     -45.192     126.267
  H     -271.316     -45.345     125.592
  H     -271.535     -43.274     126.809
  H     -269.725     -44.081     128.847
  H     -271.424     -45.828     129.536
  H     -272.096     -44.192     129.338
  P     -269.911     -41.327     126.285
  C     -269.926     -40.165     128.635
  O     -269.291     -40.327     127.375
  O     -271.482     -41.314     126.583
  O     -269.530     -41.065     124.868
  H     -271.722     -41.815     127.382
  H     -269.374     -39.464     129.225
  H     -269.961     -41.107     129.140
  H     -270.922     -39.801     128.489

 6  7  8  9  10  11  12  13  14  15  16  27  31  32  33  34  35 0
 6-311+G(2d,p)
 ****
 36  37 0
 6-311+G(2d,p)
 ****
 1  2  3  4  5  17  18  19  20  21  22  23  24  25 0
 3-21G
 ****
 26  28  29  30  38  39  40  41  42  43  44  45 0
 3-21G
 ****


