%nproc=1
%NoSave
%Mem=1900MB
#P OB98/GEN NMR

erre ene a

0 1
  C     -909.633     263.661    -144.088
  O     -908.559     262.793    -143.787
  H     -909.308     264.371    -144.852
  H     -909.922     264.216    -143.191
  H     -910.488     263.097    -144.472
  P     -908.871     261.525    -142.861
  C     -907.710     262.621    -140.809
  O     -907.760     261.516    -141.700
  C     -907.210     262.167    -139.436
  O     -908.189     261.253    -138.867
  C     -905.862     261.426    -139.483
  O     -905.119     261.774    -138.311
  C     -906.273     259.965    -139.400
  O     -905.255     259.104    -138.913
  C     -907.485     260.059    -138.471
  N     -908.357     258.886    -138.558
  C     -908.164     257.873    -137.618
  O     -907.379     257.937    -136.674
  N     -908.933     256.755    -137.802
  C     -909.813     256.534    -138.812
  O     -910.449     255.495    -138.932
  C     -909.966     257.635    -139.783
  C     -909.240     258.738    -139.607
  O     -908.451     260.291    -143.787
  O     -910.280     261.421    -142.373
  H     -909.208     259.992    -144.326
  H     -904.820     259.553    -138.162
  H     -908.799     256.009    -137.128
  H     -910.653     257.491    -140.600
  H     -909.310     259.557    -140.317
  H     -907.160     260.195    -137.433
  H     -906.573     259.605    -140.398
  H     -905.267     261.634    -140.377
  H     -907.153     263.036    -138.775
  H     -908.720     263.041    -140.697
  H     -907.049     263.392    -141.224
  P     -904.076     262.982    -138.425
  C     -901.965     261.460    -138.093
  O     -902.782     262.518    -137.604
  O     -904.769     264.080    -137.502
  O     -903.826     263.405    -139.834
  H     -905.230     263.697    -136.737
  H     -901.154     261.293    -137.415
  H     -901.577     261.724    -139.055
  H     -902.549     260.568    -138.177

 6  7  8  9  10  11  12  13  14  15  16  27  31  32  33  34  35 0
 6-311+G(2d,p)
 ****
 36  37 0
 6-311+G(2d,p)
 ****
 1  2  3  4  5  17  18  19  20  21  22  23  24  25 0
 3-21G
 ****
 26  28  29  30  38  39  40  41  42  43  44  45 0
 3-21G
 ****


