%nproc=1
%NoSave
%Mem=1900MB
#P OB98/GEN NMR

erre ene a

0 1
  C     -219.670     430.083    -104.134
  O     -220.096     431.213    -103.404
  H     -218.578     430.058    -104.135
  H     -220.022     430.157    -105.167
  H     -220.042     429.158    -103.686
  P     -221.625     431.300    -102.941
  C     -221.697     433.673    -103.953
  O     -221.999     432.856    -102.832
  C     -222.258     435.089    -103.773
  O     -223.534     435.021    -103.091
  C     -221.325     435.923    -102.889
  O     -221.397     437.313    -103.194
  C     -221.884     435.689    -101.494
  O     -221.518     436.708    -100.569
  C     -223.381     435.616    -101.789
  N     -227.936     434.652     -99.721
  C     -227.581     435.622    -100.637
  N     -228.563     436.458    -101.038
  N     -226.367     435.767    -101.104
  C     -225.473     434.908    -100.559
  C     -225.700     433.922     -99.625
  C     -227.054     433.745     -99.147
  O     -227.424     432.914     -98.323
  N     -224.541     433.264     -99.298
  C     -223.614     433.854    -100.025
  N     -224.132     434.850    -100.816
  O     -221.584     430.845    -101.405
  O     -222.591     430.472    -103.732
  H     -221.743     436.387     -99.676
  H     -222.448     430.489    -101.134
  H     -228.887     434.571     -99.407
  H     -222.562     433.598    -100.019
  H     -223.818     436.623    -101.825
  H     -221.477     434.747    -101.116
  H     -229.459     436.497    -100.577
  H     -220.288     435.597    -102.966
  H     -228.266     437.338    -101.467
  H     -222.441     435.551    -104.747
  H     -222.152     433.199    -104.830
  H     -220.618     433.704    -104.119
  P     -220.427     437.871    -104.340
  C     -218.301     438.824    -103.135
  O     -219.568     439.070    -103.711
  O     -221.424     438.593    -105.359
  O     -219.613     436.813    -105.004
  H     -221.537     438.050    -106.161
  H     -217.889     439.743    -102.773
  H     -217.648     438.407    -103.873
  H     -218.406     438.136    -102.322

 6  7  8  9  10  11  12  13  14  15  26  29  33  34 0
 6-311+G(2d,p)
 ****
 36  38  39  40  41 0
 6-311+G(2d,p)
 ****
 1  2  3  4  5  16  17  18  19  20  21  22  23  24  25 0
 3-21G
 ****
 27  28  30  31  32  35  37  42  43  44  45  46  47 0
 3-21G
 ****
 48  49 0
 3-21G
 ****


