%nproc=1
%NoSave
%Mem=1900MB
#P OB98/GEN NMR

erre ene a

0 1
  C     -224.440      -2.698      89.398
  O     -224.037      -1.326      89.357
  P     -225.182      -0.241      89.050
  C     -223.820       1.520      87.724
  O     -224.813       0.506      87.675
  C     -224.079       2.611      86.673
  O     -223.983       2.064      85.326
  C     -225.460       3.264      86.791
  O     -225.331       4.634      86.397
  C     -226.275       2.530      85.742
  O     -227.439       3.268      85.373
  C     -225.223       2.362      84.647
  N     -228.485       0.958      80.977
  C     -228.394       2.076      81.725
  N     -227.503       2.367      82.702
  C     -226.619       1.364      82.842
  C     -226.588       0.159      82.156
  C     -227.582      -0.032      81.182
  N     -227.691      -1.185      80.437
  N     -225.550      -0.636      82.614
  C     -224.973       0.078      83.562
  N     -225.563       1.303      83.715
  O     -224.932       0.881      90.165
  O     -226.570      -0.788      89.127
  H     -227.940       2.738      84.715
  H     -225.639       0.844      90.838
  H     -229.137       2.844      81.517
  H     -224.141      -0.245      84.167
  H     -225.079       3.281      84.059
  H     -226.594       1.555      86.130
  H     -225.908       3.204      87.787
  H     -223.299       3.378      86.772
  H     -222.831       1.085      87.551
  H     -228.448      -1.257      79.776
  H     -227.056      -1.948      80.611
  H     -223.787       1.944      88.734
  P     -225.234       5.714      87.581
  C     -227.760       6.281      87.733
  O     -226.641       5.669      88.343
  O     -225.260       7.123      86.811
  O     -224.019       5.571      88.441
  H     -224.818       7.806      87.348
  H     -228.639       5.646      87.889
  H     -227.621       6.425      86.659
  H     -227.938       7.253      88.204
  H     -223.590      -3.313      89.610
  H     -224.855      -2.976      88.452
  H     -225.176      -2.831      90.163

 3  4  5  6  7  8  9  10  11  12  22  25  29  30  31  32 0
 6-311+G(2d,p)
 ****
 33  36  37 0
 6-311+G(2d,p)
 ****
 1  2  13  14  15  16  17  18  19  20  21  23  24  26 0
 3-21G
 ****
 27  28  34  35  38  39  40  41  42  43  44  45  46  47  48 0
 3-21G
 ****


