%nproc=1
%NoSave
%Mem=1900MB
#P OB98/GEN NMR

erre ene a

0 1
  C      208.427     196.146      84.795
  O      207.157     196.271      85.398
  H      208.327     195.546      83.888
  H      209.118     195.643      85.477
  H      208.820     197.131      84.525
  P      207.066     197.145      86.744
  C      204.850     198.354      86.106
  O      205.494     197.414      86.957
  C      203.331     198.248      86.245
  O      202.888     196.987      85.691
  C      202.848     198.314      87.698
  O      201.692     199.147      87.776
  C      202.500     196.875      88.039
  O      201.518     196.787      89.070
  C      202.076     196.320      86.675
  N      202.244     194.867      86.606
  C      201.078     194.102      86.524
  O      199.973     194.650      86.527
  N      201.182     192.736      86.498
  C      202.349     192.176      86.604
  N      202.387     190.816      86.592
  C      203.602     192.944      86.742
  C      203.477     194.270      86.726
  O      207.634     198.567      86.287
  O      207.763     196.564      87.929
  H      201.944     197.037      89.917
  H      207.835     199.143      87.064
  H      204.548     192.433      86.840
  H      204.345     194.914      86.825
  H      201.026     196.560      86.468
  H      203.402     196.359      88.391
  H      203.607     198.701      88.378
  H      202.869     199.037      85.640
  H      201.503     190.324      86.508
  H      205.139     198.151      85.070
  H      203.233     190.278      86.698
  H      205.173     199.364      86.377
  P      201.903     200.578      88.475
  C      200.678     201.895      86.608
  O      200.712     201.539      87.981
  O      203.201     201.162      87.747
  O      202.066     200.498      89.957
  H      203.993     201.032      88.300
  H      199.838     202.532      86.426
  H      200.590     201.011      86.012
  H      201.580     202.410      86.351

 6  7  8  9  10  11  12  13  14  15  16  26  30  31  32  33  35 0
 6-311+G(2d,p)
 ****
 37  38 0
 6-311+G(2d,p)
 ****
 1  2  3  4  5  17  18  19  20  21  22  23  24  25 0
 3-21G
 ****
 27  28  29  34  36  39  40  41  42  43  44  45  46 0
 3-21G
 ****


