%nproc=1
%NoSave
%Mem=1900MB
#P OB98/GEN NMR

erre ene a

0 1
  C       47.728     109.864     315.708
  O       47.446     110.087     314.341
  H       47.013     109.134     316.097
  H       47.626     110.790     316.275
  H       48.738     109.460     315.827
  P       48.312     111.171     313.541
  C       50.004     109.398     312.730
  O       49.051     110.386     312.351
  C       50.448     108.597     311.501
  O       49.393     107.657     311.179
  C       50.690     109.490     310.271
  O       51.973     109.296     309.682
  C       49.464     109.228     309.404
  O       49.665     109.439     308.022
  C       49.071     107.795     309.784
  N       47.664     107.485     309.546
  C       47.318     107.003     308.285
  O       48.111     106.792     307.368
  N       45.987     106.739     308.096
  C       44.994     106.919     309.012
  O       43.818     106.658     308.787
  C       45.416     107.453     310.316
  C       46.711     107.709     310.519
  O       49.207     112.027     314.376
  O       47.217     112.048     312.767
  H       49.930     110.374     307.899
  H       47.090     112.894     313.234
  H       45.729     106.380     307.192
  H       44.652     107.617     311.063
  H       47.058     108.102     311.472
  H       49.668     107.073     309.224
  H       48.666     109.912     309.720
  H       50.701     110.550     310.558
  H       51.342     108.016     311.760
  H       49.530     108.737     313.463
  H       50.873     109.881     313.193
  P       52.867     110.456     309.047
  C       53.767     111.610     311.223
  O       54.035     110.809     310.081
  O       52.113     111.601     308.460
  O       53.637     109.710     307.841
  H       53.762     110.378     307.136
  H       54.666     111.735     311.790
  H       53.027     111.131     311.829
  H       53.406     112.568     310.910

 6  7  8  9  10  11  12  13  14  15  16  26  31  32  33  34  35 0
 6-311+G(2d,p)
 ****
 36  37 0
 6-311+G(2d,p)
 ****
 1  2  3  4  5  17  18  19  20  21  22  23  24  25 0
 3-21G
 ****
 27  28  29  30  38  39  40  41  42  43  44  45 0
 3-21G
 ****


