%nproc=1
%NoSave
%Mem=1900MB
#P OB98/GEN NMR

erre ene a

0 1
  C       95.731     664.195     277.393
  O       94.490     663.818     277.953
  H       96.533     663.723     277.963
  H       95.856     665.281     277.444
  H       95.802     663.866     276.348
  P       93.136     664.270     277.221
  C       91.516     666.188     277.801
  O       92.876     665.800     277.631
  C       91.434     667.391     278.746
  O       91.931     667.031     280.056
  C       92.276     668.591     278.298
  O       91.640     669.270     277.230
  C       92.364     669.364     279.605
  O       91.158     670.107     279.850
  C       92.520     668.222     280.634
  N       93.914     667.989     281.019
  C       94.246     668.319     282.339
  O       93.446     668.792     283.138
  N       95.564     668.132     282.673
  C       96.563     667.746     281.823
  O       97.756     667.803     282.112
  C       96.135     667.337     280.482
  C       94.852     667.477     280.141
  O       91.968     663.359     277.400
  O       93.564     664.384     275.681
  H       93.262     663.591     275.202
  H       91.237     670.475     280.751
  H       95.832     668.422     283.606
  H       96.886     666.956     279.798
  H       94.522     667.216     279.140
  H       91.944     668.447     281.546
  H       93.187     670.081     279.607
  H       93.279     668.255     278.010
  H       90.379     667.677     278.852
  H       90.959     665.356     278.228
  H       91.096     666.438     276.819
  P       92.487     669.795     275.975
  C       94.539     671.279     275.590
  O       93.837     670.475     276.515
  O       91.719     670.636     275.004
  O       93.016     668.450     275.264
  H       92.760     668.467     274.317
  H       95.416     671.677     276.057
  H       93.911     672.083     275.267
  H       94.823     670.686     274.745

 6  7  8  9  10  11  12  13  14  15  16  27  31  32  33  34  35 0
 6-311+G(2d,p)
 ****
 36  37 0
 6-311+G(2d,p)
 ****
 1  2  3  4  5  17  18  19  20  21  22  23  24  25 0
 3-21G
 ****
 26  28  29  30  38  39  40  41  42  43  44  45 0
 3-21G
 ****


