%nproc=1
%NoSave
%Mem=1900MB
#P OB98/GEN NMR

erre ene a

0 1
  C      210.467     -41.682     235.715
  O      209.750     -40.980     236.743
  P      208.604     -39.902     236.439
  C      206.540     -40.849     235.187
  O      207.187     -40.668     236.443
  C      205.039     -41.075     235.377
  O      204.807     -42.279     236.157
  C      204.305     -39.985     236.152
  O      204.130     -38.805     235.386
  C      203.008     -40.699     236.516
  O      202.051     -40.628     235.445
  C      203.475     -42.157     236.706
  N      203.438     -42.588     238.092
  C      202.221     -42.465     238.763
  O      201.255     -41.933     238.205
  N      202.122     -42.931     240.052
  C      203.179     -43.383     240.650
  N      203.023     -43.847     241.926
  C      204.518     -43.404     240.032
  C      204.574     -43.000     238.762
  O      208.843     -39.088     235.209
  O      208.539     -38.970     237.737
  H      208.196     -38.090     237.498
  H      201.251     -41.094     235.751
  H      205.381     -43.752     240.583
  H      205.519     -42.997     238.224
  H      202.854     -42.834     236.106
  H      202.531     -40.262     237.404
  H      204.865     -39.755     237.070
  H      204.583     -41.210     234.386
  H      202.087     -43.829     242.318
  H      206.973     -41.726     234.694
  H      203.774     -44.241     242.473
  H      206.727     -39.969     234.557
  P      204.475     -37.410     236.103
  C      206.474     -35.803     235.686
  O      206.043     -37.140     235.906
  O      204.340     -37.749     237.659
  O      203.581     -36.278     235.713
  H      203.931     -36.995     238.126
  H      207.503     -35.715     236.048
  H      205.845     -35.089     236.216
  H      206.459     -35.592     234.616
  H      211.177     -42.344     236.164
  H      210.979     -40.978     235.093
  H      209.778     -42.247     235.122

 3  4  5  6  7  8  9  10  11  12  13  24  27  28  29  30  32 0
 6-311+G(2d,p)
 ****
 34  35 0
 6-311+G(2d,p)
 ****
 1  2  14  15  16  17  18  19  20  21  22  23  25  26 0
 3-21G
 ****
 31  33  36  37  38  39  40  41  42  43  44  45  46 0
 3-21G
 ****


