%nproc=1
%NoSave
%Mem=1900MB
#P OB98/GEN NMR

erre ene a

0 1
  C      538.450    -366.624      75.616
  O      539.294    -365.952      76.533
  H      538.045    -365.894      74.910
  H      537.620    -367.093      76.149
  H      539.014    -367.378      75.059
  P      540.086    -366.857      77.592
  C      542.134    -365.259      77.795
  O      541.016    -365.854      78.437
  C      542.639    -364.079      78.631
  O      541.738    -362.952      78.434
  C      542.688    -364.374      80.135
  O      543.831    -363.723      80.703
  C      541.412    -363.734      80.659
  O      541.468    -363.400      82.041
  C      541.308    -362.505      79.741
  N      539.956    -361.962      79.682
  C      539.718    -360.753      80.324
  O      540.582    -360.069      80.875
  N      538.412    -360.322      80.324
  C      537.348    -360.984      79.779
  O      536.201    -360.561      79.833
  C      537.661    -362.266      79.119
  C      538.927    -362.683      79.103
  O      541.137    -367.656      76.686
  O      539.243    -367.767      78.424
  H      540.756    -368.498      76.381
  H      541.494    -364.238      82.550
  H      538.231    -359.442      80.784
  H      536.837    -362.814      78.693
  H      539.184    -363.636      78.642
  H      542.006    -361.728      80.063
  H      540.565    -364.404      80.498
  H      542.726    -365.443      80.357
  H      543.618    -363.776      78.254
  H      541.828    -364.898      76.806
  H      542.924    -366.004      77.673
  P      544.854    -364.628      81.551
  C      546.970    -363.897      80.193
  O      546.281    -363.898      81.436
  O      544.981    -365.916      80.618
  O      544.373    -364.893      82.941
  H      544.973    -365.712      79.663
  H      547.895    -363.370      80.299
  H      546.368    -363.415      79.452
  H      547.166    -364.905      79.893

 6  7  8  9  10  11  12  13  14  15  16  27  31  32  33  34  35 0
 6-311+G(2d,p)
 ****
 36  37 0
 6-311+G(2d,p)
 ****
 1  2  3  4  5  17  18  19  20  21  22  23  24  25 0
 3-21G
 ****
 26  28  29  30  38  39  40  41  42  43  44  45 0
 3-21G
 ****


