%nproc=1
%NoSave
%Mem=1900MB
#P OB98/GEN NMR

erre ene a

0 1
  C      -21.026     230.156     662.465
  O      -19.844     229.509     662.014
  P      -19.740     227.916     661.947
  C      -18.587     228.054     659.649
  O      -18.473     227.626     660.998
  C      -17.201     228.305     659.058
  O      -16.637     229.475     659.689
  C      -16.169     227.197     659.273
  O      -16.231     226.136     658.334
  C      -14.871     227.969     659.080
  O      -14.622     228.151     657.671
  C      -15.197     229.314     659.746
  N      -11.135     229.609     662.841
  C      -11.236     229.599     661.495
  N      -12.353     229.497     660.741
  C      -13.446     229.444     661.526
  C      -13.484     229.443     662.913
  C      -12.255     229.533     663.578
  N      -12.131     229.561     664.961
  N      -14.796     229.364     663.367
  C      -15.523     229.314     662.269
  N      -14.757     229.374     661.132
  O      -21.005     227.225     661.569
  O      -19.207     227.491     663.396
  H      -15.456     228.487     657.284
  H      -19.359     226.541     663.549
  H      -10.300     229.677     660.931
  H      -16.603     229.241     662.254
  H      -14.746     230.163     659.209
  H      -14.000     227.449     659.504
  H      -16.214     226.813     660.307
  H      -17.309     228.520     657.986
  H      -19.161     228.988     659.633
  H      -11.226     229.753     665.346
  H      -12.990     229.675     665.503
  H      -19.138     227.303     659.059
  P      -15.580     224.718     658.768
  C      -16.913     223.500     656.877
  O      -15.669     223.785     657.463
  O      -16.159     224.140     660.016
  O      -14.019     225.063     658.882
  H      -13.582     225.284     658.036
  H      -16.742     222.981     655.922
  H      -17.483     224.407     656.684
  H      -17.495     222.825     657.530
  H      -20.887     231.216     662.432
  H      -21.236     229.855     663.470
  H      -21.845     229.884     661.832

 3  4  5  6  7  8  9  10  11  12  22  25  29  30  31  32 0
 6-311+G(2d,p)
 ****
 33  36  37 0
 6-311+G(2d,p)
 ****
 1  2  13  14  15  16  17  18  19  20  21  23  24  26 0
 3-21G
 ****
 27  28  34  35  38  39  40  41  42  43  44  45  46  47  48 0
 3-21G
 ****


