%nproc=1
%NoSave
%Mem=1900MB
#P OB98/GEN NMR

erre ene a

0 1
  C      154.452    -204.208     322.360
  O      154.507    -203.305     323.445
  P      153.174    -202.854     324.208
  C      153.235    -200.387     323.521
  O      153.340    -201.302     324.602
  C      152.891    -198.980     324.020
  O      152.881    -198.066     322.885
  C      151.530    -198.858     324.716
  O      151.676    -197.869     325.743
  C      150.631    -198.320     323.613
  O      149.456    -197.696     324.113
  C      151.602    -197.385     322.904
  N      149.152    -194.023     319.932
  C      149.342    -194.066     321.266
  N      149.985    -195.012     321.984
  C      150.459    -195.985     321.181
  C      150.317    -196.092     319.804
  C      149.637    -195.035     319.165
  N      149.460    -194.958     317.801
  N      150.896    -197.261     319.356
  C      151.371    -197.847     320.433
  N      151.188    -197.079     321.550
  O      152.750    -203.741     325.333
  O      152.065    -202.816     323.053
  H      149.717    -197.034     324.783
  H      151.462    -203.585     323.146
  H      148.934    -193.235     321.828
  H      151.855    -198.810     320.461
  H      151.732    -196.437     323.445
  H      150.320    -199.146     322.962
  H      151.160    -199.804     325.142
  H      153.698    -198.648     324.693
  H      152.439    -200.738     322.855
  H      149.082    -194.099     317.440
  H      150.031    -195.544     317.199
  H      154.178    -200.366     322.954
  P      150.791    -197.958     327.078
  C      149.277    -195.982     326.452
  O      150.243    -196.484     327.367
  O      151.439    -198.636     328.235
  O      149.470    -198.741     326.596
  H      148.996    -199.094     327.379
  H      149.787    -195.618     325.548
  H      148.739    -195.156     326.915
  H      148.565    -196.765     326.169
  H      155.441    -204.381     321.990
  H      153.847    -203.793     321.581
  H      154.027    -205.134     322.688

 3  4  5  6  7  8  9  10  11  12  22  25  29  30  31  32 0
 6-311+G(2d,p)
 ****
 33  36  37 0
 6-311+G(2d,p)
 ****
 1  2  13  14  15  16  17  18  19  20  21  23  24  26 0
 3-21G
 ****
 27  28  34  35  38  39  40  41  42  43  44  45  46  47  48 0
 3-21G
 ****


