%nproc=1
%NoSave
%Mem=1900MB
#P OB98/GEN NMR

erre ene a

0 1
  C      913.974    -896.660     318.301
  O      915.264    -897.240     318.258
  P      916.400    -896.600     317.332
  C      917.769    -895.860     319.379
  O      917.143    -895.440     318.171
  C      919.294    -895.910     319.180
  O      919.797    -894.620     318.767
  C      920.053    -896.250     320.447
  O      919.978    -897.620     320.740
  C      921.461    -895.740     320.089
  O      922.160    -896.720     319.286
  C      921.145    -894.480     319.256
  N      922.420    -889.560     318.926
  C      922.531    -890.570     318.036
  N      922.207    -891.870     318.214
  C      921.724    -892.080     319.473
  C      921.589    -891.140     320.480
  C      921.918    -889.810     320.165
  N      921.763    -888.760     321.035
  N      921.108    -891.730     321.641
  C      920.960    -893.010     321.307
  N      921.278    -893.250     320.013
  O      915.951    -896.180     315.961
  O      917.527    -897.720     317.227
  H      921.876    -897.610     319.638
  H      917.643    -898.000     316.292
  H      922.922    -890.320     317.077
  H      920.642    -893.820     322.013
  H      921.781    -894.420     318.373
  H      922.062    -895.560     320.975
  H      919.673    -895.650     321.304
  H      919.512    -896.630     318.387
  H      917.396    -896.860     319.642
  H      921.904    -887.820     320.644
  H      921.138    -888.870     321.826
  H      917.505    -895.180     320.196
  P      920.264    -898.180     322.213
  C      917.840    -898.990     322.397
  O      918.841    -898.200     322.993
  O      921.368    -897.480     322.944
  O      920.574    -899.720     322.008
  H      921.231    -900.000     322.678
  H      917.424    -898.470     321.554
  H      917.061    -899.180     323.152
  H      918.261    -899.950     322.080
  H      913.353    -897.220     318.969
  H      913.545    -896.672     317.321
  H      914.048    -895.650     318.645

 3  4  5  6  7  8  9  10  11  12  22  25  29  30  31  32 0
 6-311+G(2d,p)
 ****
 33  36  37 0
 6-311+G(2d,p)
 ****
 1  2  13  14  15  16  17  18  19  20  21  23  24  26 0
 3-21G
 ****
 27  28  34  35  38  39  40  41  42  43  44  45  46  47  48 0
 3-21G
 ****


