%nproc=1
%NoSave
%Mem=1900MB
#P OB98/GEN NMR

erre ene a

0 1
  C      -26.364    -169.601      -1.491
  O      -25.174    -169.196      -0.836
  H      -26.146    -169.730      -2.555
  H      -27.138    -168.835      -1.379
  H      -26.710    -170.554      -1.084
  P      -25.285    -168.916       0.742
  C      -23.508    -170.669       1.424
  O      -24.884    -170.312       1.425
  C      -23.345    -172.156       1.102
  O      -23.463    -172.373      -0.314
  C      -21.997    -172.741       1.512
  O      -22.011    -173.106       2.889
  C      -21.931    -173.971       0.612
  O      -22.709    -175.042       1.192
  C      -22.598    -173.482      -0.684
  N      -18.774    -174.846      -3.828
  C      -19.347    -175.482      -2.785
  N      -20.316    -175.038      -1.958
  C      -20.711    -173.801      -2.301
  C      -20.217    -173.029      -3.348
  C      -19.205    -173.600      -4.135
  N      -18.615    -172.946      -5.202
  N      -20.858    -171.805      -3.395
  C      -21.766    -171.867      -2.443
  N      -21.692    -173.037      -1.726
  O      -26.569    -168.300       1.201
  O      -23.977    -168.022       0.986
  H      -22.701    -175.775       0.546
  H      -23.224    -168.370       0.474
  H      -18.968    -176.488      -2.578
  H      -22.509    -171.106      -2.241
  H      -23.235    -174.260      -1.131
  H      -20.916    -174.350       0.495
  H      -21.166    -172.071       1.271
  H      -24.172    -172.701       1.583
  H      -23.060    -170.452       2.406
  H      -17.778    -173.348      -5.583
  H      -18.851    -171.974      -5.343
  H      -23.006    -170.056       0.671
  P      -20.836    -172.647       3.878
  C      -22.334    -171.944       5.852
  O      -21.479    -171.502       4.794
  O      -19.554    -172.293       3.195
  O      -20.680    -173.874       4.898
  H      -19.823    -173.811       5.367
  H      -22.702    -171.096       6.391
  H      -21.783    -172.577       6.515
  H      -23.158    -172.490       5.441

 6  7  8  9  10  11  12  13  14  15  25  28  32  33  34  35 0
 6-311+G(2d,p)
 ****
 36  39  40 0
 6-311+G(2d,p)
 ****
 1  2  3  4  5  16  17  18  19  20  21  22  23  24 0
 3-21G
 ****
 26  27  29  30  31  37  38  41  42  43  44  45  46  47 0
 3-21G
 ****
 48 0
 3-21G
 ****


