%nproc=1
%NoSave
%Mem=1900MB
#P OB98/GEN NMR

erre ene a

0 1
  C     -125.778     -68.088    -624.183
  O     -125.976     -69.068    -625.181
  H     -126.685     -68.010    -623.585
  H     -125.575     -67.119    -624.645
  H     -124.947     -68.372    -623.530
  P     -124.747     -69.368    -626.171
  C     -123.258     -67.838    -627.671
  O     -124.460     -67.969    -626.913
  C     -122.793     -66.375    -627.688
  O     -123.863     -65.547    -628.224
  C     -122.432     -65.832    -626.298
  O     -121.241     -65.057    -626.397
  C     -123.617     -64.957    -625.925
  O     -123.257     -63.925    -625.010
  C     -124.106     -64.472    -627.292
  N     -125.523     -64.102    -627.274
  C     -125.863     -62.906    -626.610
  O     -124.977     -62.236    -626.075
  N     -127.178     -62.542    -626.531
  C     -128.098     -63.329    -627.014
  N     -129.390     -62.925    -626.879
  C     -127.792     -64.608    -627.679
  C     -126.505     -64.932    -627.779
  O     -125.414     -70.276    -627.312
  O     -123.550     -69.983    -625.529
  H     -123.950     -63.224    -625.061
  H     -124.728     -70.713    -627.872
  H     -128.590     -65.239    -628.051
  H     -126.185     -65.854    -628.251
  H     -123.528     -63.597    -627.640
  H     -124.390     -65.566    -625.452
  H     -122.286     -66.622    -625.562
  H     -121.951     -66.290    -628.382
  H     -129.560     -62.048    -626.411
  H     -123.445     -68.184    -628.691
  H     -130.180     -63.469    -627.198
  H     -122.479     -68.464    -627.216
  P     -119.921     -65.725    -625.759
  C     -118.714     -65.686    -623.463
  O     -119.868     -65.316    -624.207
  O     -118.722     -64.892    -626.420
  O     -119.813     -67.192    -626.019
  H     -118.335     -65.392    -627.176
  H     -118.818     -65.350    -622.452
  H     -117.848     -65.236    -623.901
  H     -118.608     -66.751    -623.476

 6  7  8  9  10  11  12  13  14  15  16  26  30  31  32  33  35 0
 6-311+G(2d,p)
 ****
 37  38 0
 6-311+G(2d,p)
 ****
 1  2  3  4  5  17  18  19  20  21  22  23  24  25 0
 3-21G
 ****
 27  28  29  34  36  39  40  41  42  43  44  45  46 0
 3-21G
 ****


