%nproc=1
%NoSave
%Mem=1900MB
#P OB98/GEN NMR

erre ene a

0 1
  C     -153.497     312.916    -159.535
  O     -153.678     311.523    -159.272
  P     -153.988     311.112    -157.747
  C     -156.567     310.905    -158.037
  O     -155.484     311.589    -157.418
  C     -157.343     310.084    -157.012
  O     -156.484     309.144    -156.343
  C     -157.974     310.906    -155.897
  O     -159.182     311.520    -156.316
  C     -158.247     309.832    -154.853
  O     -159.478     309.155    -155.161
  C     -157.051     308.883    -155.036
  N     -154.416     306.686    -151.305
  C     -155.409     306.168    -152.110
  N     -155.731     304.872    -151.908
  N     -156.036     306.858    -153.028
  C     -155.590     308.132    -153.138
  C     -154.615     308.762    -152.401
  C     -153.953     307.996    -151.366
  O     -153.087     308.415    -150.605
  N     -154.434     310.057    -152.810
  C     -155.279     310.205    -153.811
  N     -156.015     309.067    -154.039
  O     -153.084     312.135    -156.910
  O     -153.670     309.690    -157.426
  H     -159.322     308.634    -155.974
  H     -152.851     311.745    -156.046
  H     -153.972     306.115    -150.609
  H     -155.393     311.104    -154.402
  H     -157.360     307.831    -155.020
  H     -158.350     310.239    -153.845
  H     -155.242     304.263    -151.269
  H     -157.258     311.639    -155.500
  H     -156.434     304.462    -152.512
  H     -158.123     309.522    -157.546
  H     -156.188     310.246    -158.820
  H     -157.216     311.639    -158.526
  P     -159.496     312.987    -155.746
  C     -159.680     313.804    -158.202
  O     -159.107     313.999    -156.926
  O     -158.348     313.203    -154.652
  O     -160.862     313.145    -155.167
  H     -158.662     313.806    -153.952
  H     -160.746     313.569    -158.124
  H     -159.161     312.992    -158.719
  H     -159.567     314.722    -158.782
  H     -153.299     313.059    -160.577
  H     -152.672     313.283    -158.961
  H     -154.385     313.448    -159.264

 3  4  5  6  7  8  9  10  11  12  23  26  30  31  33  0
 6-311+G(2d,p)
 ****
 35  36  37  38 0
 6-311+G(2d,p)
 ****
 1  2  13  14  15  16  17  18  19  20  21  22  24  25  27  28  29 0
 3-21G
 ****
 32  34  39  40  41  42  43  44  45  46  47  48  49 0
 3-21G
 ****


