%nproc=1
%NoSave
%Mem=1900MB
#P OB98/GEN NMR

erre ene a

0 1
  C        5.493      14.706      -9.863
  O        4.961      14.999      -8.587
  P        5.772      14.618      -7.257
  C        6.312      12.402      -6.053
  O        5.499      13.052      -7.027
  C        5.868      10.953      -5.853
  O        4.529      10.903      -5.322
  C        5.838      10.130      -7.133
  O        7.147       9.744      -7.509
  C        4.930       8.979      -6.721
  O        5.660       7.972      -6.002
  C        3.916       9.683      -5.794
  N        2.643       9.938      -6.456
  C        1.710       8.896      -6.409
  O        1.995       7.829      -5.865
  N        0.495       9.071      -7.027
  C        0.247      10.179      -7.653
  N       -0.969      10.287      -8.254
  C        1.214      11.289      -7.752
  C        2.381      11.102      -7.138
  O        5.513      15.494      -6.079
  O        7.298      14.644      -7.745
  H        6.044       8.420      -5.222
  H        7.622      15.569      -7.868
  H        0.966      12.189      -8.295
  H        3.150      11.865      -7.163
  H        3.721       9.072      -4.904
  H        4.472       8.487      -7.584
  H        5.359      10.705      -7.934
  H        6.542      10.489      -5.121
  H       -1.592       9.492      -8.189
  H        6.215      12.943      -5.108
  H       -1.251      11.089      -8.797
  H        7.359      12.446      -6.370
  P        7.524       9.604      -9.057
  C        6.339       8.652     -11.124
  O        6.496       8.570      -9.721
  O        8.965       9.342      -9.345
  O        7.072      11.010      -9.679
  H        7.769      11.330     -10.282
  H        5.898       7.719     -11.483
  H        7.302       8.803     -11.619
  H        5.668       9.479     -11.368
  H        4.810      15.034     -10.618
  H        5.644      13.650      -9.953
  H        6.428      15.211      -9.984

 3  4  5  6  7  8  9  10  11  12  13  23  27  28  29  30  32 0
 6-311+G(2d,p)
 ****
 34  35 0
 6-311+G(2d,p)
 ****
 1  2  14  15  16  17  18  19  20  21  22  24  25  26 0
 3-21G
 ****
 31  33  36  37  38  39  40  41  42  43  44  45  46 0
 3-21G
 ****


