%nproc=1
%NoSave
%Mem=1900MB
#P OB98/GEN NMR

erre ene a

0 1
  C       38.330     -18.504     -89.936
  O       38.808     -17.371     -90.649
  P       40.095     -17.554     -91.588
  C       38.813     -17.048     -93.784
  O       39.560     -17.997     -93.037
  C       39.723     -16.223     -94.694
  O       40.430     -17.118     -95.594
  C       38.992     -15.193     -95.560
  O       39.869     -14.072     -95.721
  C       38.850     -15.905     -96.892
  O       38.635     -14.999     -97.970
  C       40.174     -16.662     -96.940
  N       40.762     -18.152    -101.794
  C       40.907     -16.949    -101.201
  N       40.734     -16.630     -99.901
  C       40.370     -17.712     -99.192
  C       40.149     -18.994     -99.666
  C       40.365     -19.203    -101.039
  N       40.229     -20.430    -101.645
  N       39.759     -19.829     -98.641
  C       39.744     -19.067     -97.567
  N       40.129     -17.787     -97.848
  O       40.763     -18.889     -91.011
  O       41.057     -16.416     -91.578
  H       39.456     -14.490     -98.109
  H       41.611     -18.675     -90.575
  H       41.209     -16.134    -101.854
  H       39.463     -19.390     -96.575
  H       41.009     -16.016     -97.241
  H       37.998     -16.594     -96.855
  H       38.030     -14.867     -95.152
  H       40.480     -15.731     -94.070
  H       38.309     -16.372     -93.088
  H       40.533     -20.528    -102.600
  H       40.120     -21.253    -101.062
  H       38.054     -17.565     -94.377
  P       39.198     -12.676     -96.133
  C       40.082     -11.434     -94.036
  O       38.956     -11.863     -94.777
  O       37.723     -13.098     -96.593
  O       39.924     -11.946     -97.214
  H       37.383     -12.459     -97.247
  H       39.845     -10.483     -93.551
  H       40.962     -11.298     -94.672
  H       40.309     -12.178     -93.267
  H       37.473     -18.226     -89.358
  H       39.098     -18.865     -89.284
  H       38.059     -19.273     -90.629

 3  4  5  6  7  8  9  10  11  12  22  25  29  30  31  32 0
 6-311+G(2d,p)
 ****
 33  36  37 0
 6-311+G(2d,p)
 ****
 1  2  13  14  15  16  17  18  19  20  21  23  24  26 0
 3-21G
 ****
 27  28  34  35  38  39  40  41  42  43  44  45  46  47  48 0
 3-21G
 ****


