%nproc=1
%NoSave
%Mem=1900MB
#P OB98/GEN NMR

erre ene a

0 1
  C      173.165     130.259      79.921
  O      174.282     131.093      79.673
  P      174.107     132.664      79.959
  C      175.120     132.370      82.341
  O      175.172     133.050      81.093
  C      176.520     132.272      82.943
  O      177.320     131.342      82.187
  C      177.304     133.578      82.941
  O      176.844     134.451      83.959
  C      178.721     133.052      83.142
  O      178.937     132.735      84.528
  C      178.707     131.765      82.302
  N      182.701     133.545      79.636
  C      182.432     133.532      80.961
  N      181.338     133.062      81.593
  C      180.465     132.553      80.709
  C      180.589     132.515      79.332
  C      181.773     133.038      78.790
  N      182.039     133.054      77.437
  N      179.476     131.939      78.754
  C      178.699     131.623      79.769
  N      179.258     131.960      80.971
  O      172.707     132.738      80.727
  O      174.125     133.532      78.740
  H      178.649     133.509      85.051
  H      172.229     133.561      80.502
  H      183.202     133.959      81.599
  H      177.731     131.148      79.684
  H      179.265     130.949      82.773
  H      179.492     133.771      82.847
  H      177.223     134.072      81.965
  H      176.423     131.889      83.967
  H      174.729     131.360      82.190
  H      182.840     133.579      77.125
  H      181.289     132.806      76.804
  H      174.443     132.908      83.010
  P      176.936     136.029      83.670
  C      174.413     135.943      84.144
  O      175.629     136.626      84.390
  O      176.545     136.096      82.123
  O      178.230     136.663      84.044
  H      175.743     135.586      81.925
  H      173.622     136.415      84.730
  H      174.501     134.894      84.443
  H      174.154     136.010      83.082
  H      173.418     129.245      79.690
  H      172.345     130.570      79.308
  H      172.888     130.331      80.952

 3  4  5  6  7  8  9  10  11  12  22  25  29  30  31  32 0
 6-311+G(2d,p)
 ****
 33  36  37 0
 6-311+G(2d,p)
 ****
 1  2  13  14  15  16  17  18  19  20  21  23  24  26 0
 3-21G
 ****
 27  28  34  35  38  39  40  41  42  43  44  45  46  47  48 0
 3-21G
 ****


