%nproc=1
%NoSave
%Mem=1900MB
#P OB98/GEN NMR

erre ene a

0 1
  C     -323.707    -752.132    -115.352
  O     -322.444    -752.212    -115.985
  H     -324.278    -751.314    -115.803
  H     -323.578    -751.923    -114.288
  H     -324.273    -753.062    -115.486
  P     -321.466    -753.417    -115.609
  C     -320.980    -754.092    -118.053
  O     -320.440    -753.594    -116.836
  C     -319.981    -753.902    -119.183
  O     -319.900    -752.506    -119.557
  C     -318.554    -754.318    -118.833
  O     -318.426    -755.737    -118.843
  C     -317.776    -753.593    -119.921
  O     -317.839    -754.304    -121.167
  C     -318.549    -752.257    -120.021
  N     -317.917    -751.170    -119.249
  C     -317.118    -750.310    -119.976
  O     -316.919    -750.410    -121.191
  N     -316.495    -749.314    -119.256
  C     -316.535    -749.174    -117.898
  O     -315.791    -748.432    -117.267
  C     -317.461    -750.087    -117.195
  C     -318.088    -751.030    -117.894
  O     -322.123    -754.680    -115.157
  O     -320.536    -752.798    -114.455
  H     -320.844    -753.109    -113.585
  H     -317.268    -753.825    -121.795
  H     -315.872    -748.707    -119.767
  H     -317.571    -749.970    -116.113
  H     -318.754    -751.724    -117.383
  H     -318.634    -751.937    -121.070
  H     -316.713    -753.484    -119.670
  H     -318.278    -753.916    -117.853
  H     -320.350    -754.461    -120.067
  H     -321.902    -753.542    -118.280
  H     -321.223    -755.159    -117.920
  P     -317.842    -756.514    -117.589
  C     -319.643    -758.338    -117.725
  O     -318.251    -758.069    -117.728
  O     -318.154    -755.915    -116.258
  O     -316.248    -756.545    -117.836
  H     -315.791    -756.186    -117.041
  H     -319.803    -759.392    -117.822
  H     -320.106    -757.830    -118.545
  H     -320.071    -757.995    -116.806

 6  7  8  9  10  11  12  13  14  15  16  27  31  32  33  34  35 0
 6-311+G(2d,p)
 ****
 36  37 0
 6-311+G(2d,p)
 ****
 1  2  3  4  5  17  18  19  20  21  22  23  24  25 0
 3-21G
 ****
 26  28  29  30  38  39  40  41  42  43  44  45 0
 3-21G
 ****


