%nproc=1
%NoSave
%Mem=1900MB
#P OB98/GEN NMR

erre ene a

0 1
  C      315.151     160.588    -149.640
  O      315.251     161.354    -150.830
  P      313.967     162.208    -151.281
  C      314.514     164.231    -149.734
  O      313.611     163.187    -150.061
  C      313.954     165.586    -150.173
  O      314.783     166.637    -149.607
  C      313.917     165.806    -151.692
  O      312.783     166.637    -151.967
  C      315.195     166.586    -151.954
  O      315.157     167.312    -153.175
  C      315.262     167.448    -150.698
  N      318.403     171.415    -150.749
  C      317.101     171.309    -151.206
  N      316.545     172.442    -151.694
  N      316.409     170.199    -151.191
  C      317.093     169.156    -150.661
  C      318.394     169.125    -150.211
  C      319.131     170.367    -150.201
  O      320.256     170.527    -149.726
  N      318.762     167.863    -149.831
  C      317.663     167.152    -149.975
  N      316.610     167.901    -150.431
  O      312.790     161.124    -151.251
  O      314.080     162.897    -152.605
  H      314.359     167.884    -153.157
  H      312.656     160.726    -152.134
  H      318.879     172.303    -150.773
  H      317.567     166.096    -149.759
  H      314.621     168.341    -150.765
  H      316.048     165.893    -151.999
  H      317.008     173.337    -151.711
  H      313.864     164.878    -152.266
  H      315.583     172.399    -152.006
  H      312.949     165.698    -149.746
  H      315.460     164.060    -150.258
  H      314.711     164.222    -148.656
  P      312.171     166.596    -153.447
  C      310.217     165.084    -152.659
  O      311.284     165.270    -153.572
  O      313.452     166.268    -154.355
  O      311.518     167.867    -153.890
  H      313.351     166.692    -155.226
  H      309.497     164.389    -153.097
  H      309.713     166.028    -152.439
  H      310.604     164.657    -151.729
  H      316.075     160.076    -149.467
  H      314.361     159.874    -149.741
  H      314.942     161.236    -148.815

 3  4  5  6  7  8  9  10  11  12  23  26  30  31 0
 6-311+G(2d,p)
 ****
 33  35  36  37  38 0
 6-311+G(2d,p)
 ****
 1  2  13  14  15  16  17  18  19  20  21  22  24  25 0
 3-21G
 ****
 27  28  29  32  34  39  40  41  42  43  44  45  46  47  48  49 0
 3-21G
 ****


