%nproc=1
%NoSave
%Mem=1900MB
#P OB98/GEN NMR

erre ene a

0 1
  C       75.347     178.788     -78.035
  O       75.665     177.461     -77.615
  P       75.517     176.269     -78.677
  C       77.799     176.569     -79.844
  O       76.383     176.633     -79.978
  C       78.400     175.633     -80.907
  O       78.066     176.142     -82.226
  C       79.929     175.522     -80.881
  O       80.521     174.525     -80.050
  C       80.225     175.121     -82.323
  O       80.059     173.697     -82.476
  C       79.155     175.851     -83.129
  N       82.084     177.802     -86.843
  C       81.793     176.529     -86.495
  N       81.004     176.095     -85.491
  C       80.478     177.128     -84.818
  C       80.680     178.478     -85.058
  C       81.531     178.809     -86.125
  N       81.837     180.104     -86.472
  N       79.978     179.245     -84.152
  C       79.377     178.372     -83.368
  N       79.634     177.081     -83.737
  O       74.126     175.799     -78.941
  O       76.391     175.101     -78.006
  H       80.647     173.278     -81.820
  H       75.953     174.245     -78.172
  H       82.258     175.756     -87.103
  H       78.751     178.629     -82.525
  H       78.749     175.233     -83.938
  H       81.253     175.348     -82.618
  H       80.386     176.496     -80.666
  H       77.952     174.636     -80.803
  H       78.055     176.206     -78.847
  H       82.492     180.254     -87.223
  H       81.480     180.866     -85.913
  H       78.182     177.587     -79.919
  P       81.347     174.914     -78.735
  C       79.262     174.725     -77.167
  O       80.273     175.537     -77.721
  O       82.544     175.769     -78.970
  O       81.666     173.486     -78.090
  H       80.887     173.018     -77.746
  H       78.779     175.270     -76.352
  H       79.681     173.796     -76.770
  H       78.512     174.495     -77.930
  H       75.495     179.465     -77.220
  H       74.325     178.827     -78.350
  H       75.983     179.066     -78.850

 3  4  5  6  7  8  9  10  11  12  22  25  29  30  31  32 0
 6-311+G(2d,p)
 ****
 33  36  37 0
 6-311+G(2d,p)
 ****
 1  2  13  14  15  16  17  18  19  20  21  23  24  26 0
 3-21G
 ****
 27  28  34  35  38  39  40  41  42  43  44  45  46  47  48 0
 3-21G
 ****


