%nproc=1
%NoSave
%Mem=1900MB
#P OB98/GEN NMR

erre ene a

0 1
  C      182.927     135.848     142.998
  O      183.541     134.571     142.957
  P      184.523     134.234     141.739
  C      182.876     132.577     140.599
  O      183.617     133.782     140.494
  C      183.011     131.754     139.315
  O      182.500     132.531     138.190
  C      184.452     131.354     138.977
  O      184.407     130.068     138.343
  C      184.857     132.409     137.963
  O      185.968     132.024     137.169
  C      183.540     132.558     137.193
  N      183.487     133.778     136.389
  C      183.962     133.704     135.084
  O      184.418     132.682     134.573
  N      183.954     134.878     134.378
  C      183.614     136.107     134.867
  O      183.740     137.139     134.221
  C      183.122     136.123     136.254
  C      183.080     134.980     136.939
  O      185.234     132.878     142.204
  O      185.514     135.304     141.423
  H      186.643     131.655     137.766
  H      186.124     133.064     142.558
  H      184.282     134.842     133.427
  H      182.822     137.078     136.666
  H      182.741     134.965     137.969
  H      183.382     131.687     136.543
  H      185.120     133.334     138.486
  H      185.115     131.326     139.847
  H      182.377     130.863     139.405
  H      181.823     132.816     140.763
  H      183.227     132.003     141.463
  P      185.730     129.157     138.396
  C      186.458     129.560     135.917
  O      186.732     129.737     137.291
  O      185.181     127.798     137.744
  O      186.282     128.981     139.772
  H      184.622     127.956     136.965
  H      185.383     129.585     135.715
  H      186.862     128.599     135.588
  H      186.942     130.359     135.353
  H      182.305     135.917     143.866
  H      182.330     135.985     142.120
  H      183.682     136.605     143.038

 3  4  5  6  7  8  9  10  11  12  13  23  28  29  30  31  32 0
 6-311+G(2d,p)
 ****
 33  34 0
 6-311+G(2d,p)
 ****
 1  2  14  15  16  17  18  19  20  21  22  24  25  26 0
 3-21G
 ****
 27  35  36  37  38  39  40  41  42  43  44  45 0
 3-21G
 ****


