%nproc=1
%NoSave
%Mem=1900MB
#P OB98/GEN NMR

erre ene a

0 1
  C     -523.386    -351.603     -11.706
  O     -524.173    -350.773     -10.872
  P     -525.727    -350.592     -11.247
  C     -525.290    -348.005     -11.276
  O     -525.867    -349.139     -11.903
  C     -524.513    -347.173     -12.316
  O     -523.660    -348.035     -13.098
  C     -525.391    -346.445     -13.331
  O     -525.971    -345.274     -12.764
  C     -524.380    -346.182     -14.445
  O     -523.566    -345.028     -14.128
  C     -523.518    -347.460     -14.410
  N     -523.879    -348.419     -15.455
  C     -522.897    -348.689     -16.404
  O     -521.788    -348.173     -16.389
  N     -523.258    -349.575     -17.404
  C     -524.482    -350.151     -17.559
  O     -524.772    -350.895     -18.480
  C     -525.496    -349.786     -16.547
  C     -525.154    -348.970     -15.546
  O     -526.367    -350.451      -9.792
  O     -526.261    -351.734     -12.062
  H     -525.734    -350.079      -9.150
  H     -524.152    -344.258     -14.171
  H     -522.555    -349.806     -18.077
  H     -526.486    -350.219     -16.633
  H     -525.883    -348.687     -14.805
  H     -522.466    -347.204     -14.520
  H     -524.862    -345.982     -15.403
  H     -526.171    -347.121     -13.690
  H     -523.869    -346.470     -11.766
  H     -524.603    -348.335     -10.492
  H     -526.086    -347.400     -10.824
  P     -527.581    -345.250     -12.718
  C     -527.650    -343.253     -14.393
  O     -528.072    -344.555     -14.089
  O     -527.832    -344.109     -11.587
  O     -528.206    -346.570     -12.407
  H     -527.240    -343.362     -11.690
  H     -527.775    -343.101     -15.469
  H     -526.598    -343.085     -14.131
  H     -528.265    -342.520     -13.869
  H     -522.382    -351.629     -11.338
  H     -523.390    -351.214     -12.703
  H     -523.791    -352.593     -11.708

 3  4  5  6  7  8  9  10  11  12  13  24  28  29  30  31  32 0
 6-311+G(2d,p)
 ****
 33  34 0
 6-311+G(2d,p)
 ****
 1  2  14  15  16  17  18  19  20  21  22  23  25  26  27 0
 3-21G
 ****
 35  36  37  38  39  40  41  42  43  44  45 0
 3-21G
 ****


