%nproc=1
%NoSave
%Mem=1900MB
#P OB98/GEN NMR

erre ene a

0 1
  C     -256.608     184.365    -121.408
  O     -257.973     184.724    -121.496
  H     -256.048     184.940    -122.151
  H     -256.483     183.301    -121.625
  H     -256.209     184.593    -120.417
  P     -258.996     184.137    -120.410
  C     -259.839     186.462    -119.676
  O     -260.176     185.209    -120.255
  C     -260.797     187.540    -120.177
  O     -262.165     187.124    -119.974
  C     -260.657     188.872    -119.453
  O     -259.516     189.580    -119.897
  C     -261.986     189.525    -119.798
  O     -261.948     190.105    -121.111
  C     -262.949     188.319    -119.753
  N     -263.698     188.236    -118.501
  C     -264.846     189.016    -118.411
  O     -265.221     189.773    -119.307
  N     -265.542     188.921    -117.234
  C     -265.148     188.229    -116.126
  O     -265.762     188.248    -115.064
  C     -263.914     187.442    -116.270
  C     -263.258     187.480    -117.431
  O     -258.386     183.680    -119.128
  O     -259.710     182.928    -121.181
  H     -261.345     190.872    -121.056
  H     -259.355     182.080    -120.854
  H     -266.368     189.489    -117.145
  H     -263.578     186.869    -115.417
  H     -262.344     186.912    -117.554
  H     -263.670     188.378    -120.579
  H     -262.247     190.324    -119.103
  H     -260.615     188.710    -118.370
  H     -260.639     187.664    -121.258
  H     -258.815     186.720    -119.967
  H     -259.887     186.374    -118.585
  P     -258.403     190.040    -118.845
  C     -257.053     190.880    -120.863
  O     -257.505     191.169    -119.544
  O     -257.637     188.933    -118.198
  O     -259.231     190.866    -117.753
  H     -259.136     190.437    -116.881
  H     -256.467     191.698    -121.227
  H     -257.896     190.732    -121.505
  H     -256.456     189.992    -120.849

 6  7  8  9  10  11  12  13  14  15  16  26  31  32  33  34  35 0
 6-311+G(2d,p)
 ****
 36  37 0
 6-311+G(2d,p)
 ****
 1  2  3  4  5  17  18  19  20  21  22  23  24  25 0
 3-21G
 ****
 27  28  29  30  38  39  40  41  42  43  44  45 0
 3-21G
 ****


