%nproc=1
%NoSave
%Mem=1900MB
#P OB98/GEN NMR

erre ene a

0 1
  C      -72.443     -20.422      -7.659
  O      -71.149     -20.496      -8.217
  H      -72.851     -21.434      -7.584
  H      -73.096     -19.828      -8.303
  H      -72.403     -19.983      -6.659
  P      -70.348     -19.115      -8.394
  C      -67.932     -19.826      -7.738
  O      -68.850     -19.554      -8.788
  C      -67.834     -21.334      -7.493
  O      -67.515     -21.999      -8.739
  C      -66.759     -21.714      -6.473
  O      -67.272     -22.720      -5.599
  C      -65.623     -22.261      -7.317
  O      -64.809     -23.184      -6.595
  C      -66.372     -22.845      -8.520
  N      -65.523     -22.910      -9.709
  C      -64.860     -24.118      -9.945
  O      -64.994     -25.061      -9.162
  N      -64.023     -24.214     -11.026
  C      -63.815     -23.176     -11.773
  N      -62.956     -23.328     -12.816
  C      -64.455     -21.867     -11.534
  C      -65.292     -21.808     -10.500
  O      -70.204     -18.589      -6.892
  O      -70.973     -18.132      -9.326
  H      -64.528     -22.751      -5.759
  H      -69.917     -17.644      -6.867
  H      -64.238     -21.026     -12.175
  H      -65.806     -20.887     -10.247
  H      -66.738     -23.856      -8.295
  H      -64.981     -21.434      -7.642
  H      -66.424     -20.867      -5.875
  H      -68.820     -21.700      -7.187
  H      -62.528     -24.236     -12.943
  H      -68.275     -19.328      -6.827
  H      -62.698     -22.580     -13.444
  H      -66.946     -19.436      -8.012
  P      -67.500     -22.275      -4.073
  C      -69.534     -23.853      -3.765
  O      -68.236     -23.489      -3.321
  O      -68.628     -21.146      -4.178
  O      -66.261     -21.782      -3.403
  H      -68.227     -20.259      -4.137
  H      -69.896     -24.670      -3.176
  H      -69.490     -24.146      -4.793
  H      -70.194     -23.017      -3.660

 6  7  8  9  10  11  12  13  14  15  16  26  30  31  32  33  35 0
 6-311+G(2d,p)
 ****
 37  38 0
 6-311+G(2d,p)
 ****
 1  2  3  4  5  17  18  19  20  21  22  23  24  25 0
 3-21G
 ****
 27  28  29  34  36  39  40  41  42  43  44  45  46 0
 3-21G
 ****


