%nproc=1
%NoSave
%Mem=1900MB
#P OB98/GEN NMR

erre ene a

0 1
  C     -209.450     577.363       5.858
  O     -208.949     576.591       4.788
  H     -208.612     577.693       6.478
  H     -210.121     576.757       6.473
  H     -209.982     578.243       5.482
  P     -209.990     576.128       3.657
  C     -210.272     576.752       1.152
  O     -209.835     577.164       2.441
  C     -209.538     577.537       0.065
  O     -209.752     578.956       0.286
  C     -208.029     577.287       0.039
  O     -207.591     577.265      -1.322
  C     -207.451     578.511       0.734
  O     -206.105     578.780       0.344
  C     -208.463     579.595       0.345
  N     -208.449     580.706       1.295
  C     -207.793     581.874       0.889
  O     -207.256     581.925      -0.220
  N     -207.711     582.926       1.760
  C     -208.171     582.796       2.969
  N     -208.029     583.869       3.797
  C     -208.807     581.561       3.464
  C     -208.922     580.568       2.580
  O     -211.414     576.507       4.285
  O     -209.908     574.691       3.263
  H     -205.773     579.537       0.876
  H     -212.106     575.888       3.991
  H     -209.149     581.495       4.486
  H     -209.369     579.622       2.853
  H     -208.242     579.988      -0.659
  H     -207.462     578.354       1.818
  H     -207.736     576.355       0.533
  H     -209.990     577.294      -0.902
  H     -207.573     584.690       3.425
  H     -211.348     576.941       1.066
  H     -208.307     583.863       4.768
  H     -210.093     575.676       1.034
  P     -207.781     575.884      -2.115
  C     -209.975     574.634      -2.729
  O     -209.255     575.860      -2.740
  O     -207.841     574.793      -0.946
  O     -206.679     575.594      -3.086
  H     -207.021     574.261      -0.944
  H     -210.935     574.780      -3.178
  H     -210.100     574.303      -1.719
  H     -209.431     573.896      -3.281

 6  7  8  9  10  11  12  13  14  15  16  26  30  31  32  33  35 0
 6-311+G(2d,p)
 ****
 37  38 0
 6-311+G(2d,p)
 ****
 1  2  3  4  5  17  18  19  20  21  22  23  24  25 0
 3-21G
 ****
 27  28  29  34  36  39  40  41  42  43  44  45  46 0
 3-21G
 ****


