%nproc=1
%NoSave
%Mem=1900MB
#P OB98/GEN NMR

erre ene a

0 1
  C      470.151     368.040     175.001
  O      469.242     369.028     174.558
  H      470.529     367.498     174.132
  H      469.645     367.333     175.662
  H      470.998     368.498     175.523
  P      468.678     370.090     175.618
  C      469.546     372.247     174.494
  O      469.675     371.349     175.587
  C      468.713     373.472     174.889
  O      469.380     374.152     176.000
  C      468.542     374.517     173.763
  O      467.276     375.157     173.973
  C      469.696     375.451     174.060
  O      469.614     376.657     173.337
  C      469.572     375.525     175.590
  N      470.713     376.110     176.283
  C      470.634     377.457     176.631
  O      469.670     378.189     176.401
  N      471.730     377.967     177.275
  C      472.868     377.279     177.605
  O      473.805     377.784     178.210
  C      472.890     375.864     177.206
  C      471.830     375.350     176.577
  O      468.381     369.556     176.977
  O      467.359     370.662     174.908
  H      466.570     370.245     175.301
  H      469.375     376.458     172.412
  H      471.693     378.942     177.536
  H      473.781     375.290     177.444
  H      471.818     374.305     176.274
  H      468.664     376.070     175.866
  H      470.638     374.984     173.765
  H      468.562     374.070     172.763
  H      467.740     373.131     175.266
  H      469.057     371.722     173.667
  H      470.547     372.564     174.168
  P      466.284     375.576     172.784
  C      464.973     373.395     172.279
  O      466.017     374.278     171.875
  O      466.737     376.768     172.008
  O      464.866     375.846     173.480
  H      464.351     376.479     172.944
  H      464.907     372.581     171.588
  H      464.044     373.925     172.295
  H      465.185     373.017     173.257

 6  7  8  9  10  11  12  13  14  15  16  27  31  32  33  34  35 0
 6-311+G(2d,p)
 ****
 36  37 0
 6-311+G(2d,p)
 ****
 1  2  3  4  5  17  18  19  20  21  22  23  24  25 0
 3-21G
 ****
 26  28  29  30  38  39  40  41  42  43  44  45 0
 3-21G
 ****


