%nproc=1
%NoSave
%Mem=1900MB
#P OB98/GEN NMR

erre ene a

0 1
  C     -495.509     134.449    1046.049
  O     -494.487     133.708    1046.687
  H     -495.244     135.508    1046.092
  H     -496.457     134.297    1046.568
  H     -495.600     134.147    1045.002
  P     -494.583     132.110    1046.590
  C     -492.805     130.256    1047.139
  O     -493.079     131.541    1046.593
  C     -491.367     130.219    1047.675
  O     -490.412     130.226    1046.594
  C     -490.988     131.420    1048.513
  O     -491.615     131.432    1049.775
  C     -489.471     131.246    1048.576
  O     -489.112     130.258    1049.552
  C     -489.168     130.738    1047.141
  N     -488.589     131.785    1046.298
  C     -487.211     131.684    1046.057
  O     -486.564     130.759    1046.541
  N     -486.599     132.655    1045.310
  C     -487.304     133.630    1044.819
  N     -486.643     134.568    1044.087
  C     -488.758     133.762    1045.022
  C     -489.336     132.816    1045.767
  O     -495.045     131.875    1045.079
  O     -495.458     131.464    1047.617
  H     -488.151     130.091    1049.432
  H     -494.480     132.318    1044.428
  H     -489.308     134.585    1044.583
  H     -490.403     132.836    1045.971
  H     -488.460     129.905    1047.176
  H     -488.970     132.171    1048.851
  H     -491.194     132.347    1047.957
  H     -491.237     129.280    1048.234
  H     -485.641     134.459    1043.990
  H     -492.958     129.473    1046.391
  H     -487.077     135.391    1043.680
  H     -493.511     130.083    1047.952
  P     -491.808     132.804    1050.582
  C     -493.653     133.865    1052.027
  O     -493.289     132.775    1051.184
  O     -491.464     134.043    1049.817
  O     -490.906     132.583    1051.886
  H     -491.169     131.823    1052.440
  H     -494.660     133.734    1052.365
  H     -493.578     134.781    1051.479
  H     -492.995     133.899    1052.870

 6  7  8  9  10  11  12  13  14  15  16  26  30  31  32  33  35 0
 6-311+G(2d,p)
 ****
 37  38 0
 6-311+G(2d,p)
 ****
 1  2  3  4  5  17  18  19  20  21  22  23  24  25 0
 3-21G
 ****
 27  28  29  34  36  39  40  41  42  43  44  45  46 0
 3-21G
 ****


