%nproc=1
%NoSave
%Mem=1900MB
#P OB98/GEN NMR

erre ene a

0 1
  C       -0.689      97.779    -201.421
  O       -1.076      98.497    -200.267
  H       -1.235      98.147    -202.293
  H        0.382      97.926    -201.586
  H       -0.882      96.712    -201.285
  P       -2.629      98.418    -199.869
  C       -3.090     100.815    -200.728
  O       -3.407      99.436    -200.842
  C       -3.597     101.571    -201.954
  O       -5.023     101.329    -202.077
  C       -3.374     103.091    -201.890
  O       -2.756     103.560    -203.095
  C       -4.775     103.668    -201.809
  O       -4.903     104.914    -202.486
  C       -5.624     102.577    -202.449
  N      -10.311     104.102    -203.745
  C       -9.222     103.829    -204.495
  N       -8.033     103.332    -204.099
  C       -8.039     103.086    -202.778
  C       -9.080     103.291    -201.888
  C      -10.257     103.846    -202.418
  N      -11.347     104.178    -201.644
  N       -8.711     102.926    -200.607
  C       -7.453     102.547    -200.715
  N       -7.000     102.641    -202.004
  O       -2.678      99.146    -198.443
  O       -3.183      97.036    -199.799
  H       -4.639     104.769    -203.412
  H       -2.998      98.509    -197.776
  H       -9.316     104.042    -205.557
  H       -6.816     102.243    -199.894
  H       -5.613     102.642    -203.544
  H       -5.040     103.816    -200.756
  H       -2.768     103.392    -201.031
  H       -3.120     101.151    -202.848
  H       -2.004     100.938    -200.657
  H      -12.102     104.677    -202.086
  H      -11.269     104.092    -200.640
  H       -3.550     101.213    -199.817
  P       -1.579     104.642    -202.913
  C       -2.885     106.666    -203.886
  O       -2.257     106.090    -202.748
  O       -0.905     104.692    -204.364
  O       -0.585     104.279    -201.863
  H        0.049     104.494    -204.295
  H       -3.288     107.622    -203.625
  H       -3.674     106.026    -204.220
  H       -2.165     106.783    -204.669

 6  7  8  9  10  11  12  13  14  15  25  28  32  33  34  35 0
 6-311+G(2d,p)
 ****
 36  39  40 0
 6-311+G(2d,p)
 ****
 1  2  3  4  5  16  17  18  19  20  21  22  23  24 0
 3-21G
 ****
 26  27  29  30  31  37  38  41  42  43  44  45  46  47  48 0
 3-21G
 ****


