%nproc=1
%NoSave
%Mem=1900MB
#P OB98/GEN NMR

erre ene a

0 1
  C      -53.706     341.131     103.658
  O      -53.457     340.252     104.731
  H      -52.975     341.942     103.692
  H      -54.709     341.557     103.759
  H      -53.621     340.622     102.694
  P      -54.056     338.771     104.668
  C      -55.050     339.210     107.010
  O      -55.277     338.681     105.710
  C      -56.201     340.108     107.464
  O      -56.316     341.238     106.573
  C      -57.551     339.388     107.441
  O      -57.856     338.671     108.626
  C      -58.524     340.547     107.238
  O      -58.922     341.121     108.492
  C      -57.707     341.554     106.420
  N      -60.379     343.779     102.673
  C      -60.448     344.000     104.036
  N      -61.369     344.900     104.442
  N      -59.693     343.381     104.903
  C      -58.891     342.441     104.355
  C      -58.752     342.119     103.023
  C      -59.537     342.861     102.062
  O      -59.502     342.712     100.845
  N      -57.869     341.080     102.846
  C      -57.547     340.721     104.073
  N      -58.077     341.569     105.018
  O      -52.928     337.881     105.382
  O      -54.349     338.250     103.294
  H      -59.422     340.444     108.989
  H      -52.923     336.989     104.993
  H      -60.964     344.306     102.051
  H      -56.901     339.890     104.331
  H      -57.844     342.576     106.795
  H      -59.437     340.207     106.743
  H      -62.032     345.341     103.827
  H      -57.623     338.726     106.573
  H      -61.582     344.952     105.439
  H      -55.977     340.507     108.461
  H      -54.126     339.787     106.954
  H      -54.889     338.401     107.728
  P      -58.073     337.088     108.594
  C      -60.591     337.371     109.282
  O      -59.632     336.795     108.421
  O      -57.780     336.654     110.106
  O      -57.219     336.342     107.620
  H      -56.871     336.310     110.194
  H      -61.569     337.047     108.994
  H      -60.535     338.437     109.216
  H      -60.396     337.065     110.289

 6  7  8  9  10  11  12  13  14  15  26  29  33  34 0
 6-311+G(2d,p)
 ****
 36  38  39  40  41 0
 6-311+G(2d,p)
 ****
 1  2  3  4  5  16  17  18  19  20  21  22  23  24  25 0
 3-21G
 ****
 27  28  30  31  32  35  37  42  43  44  45  46  47 0
 3-21G
 ****
 48  49 0
 3-21G
 ****


