%nproc=1
%NoSave
%Mem=1900MB
#P OB98/GEN NMR

erre ene a

0 1
  C       48.911    -761.836     892.794
  O       49.949    -762.730     893.130
  H       49.288    -760.811     892.868
  H       48.084    -761.956     893.498
  H       48.555    -762.011     891.769
  P       49.760    -764.268     892.712
  C       51.357    -764.100     890.671
  O       50.039    -764.354     891.131
  C       51.683    -764.987     889.467
  O       50.636    -764.801     888.463
  C       53.029    -764.668     888.794
  O       53.628    -765.891     888.344
  C       52.626    -763.860     887.583
  O       53.604    -763.895     886.550
  C       51.309    -764.531     887.210
  N       51.137    -762.648     882.566
  C       51.972    -763.609     883.109
  N       52.951    -764.091     882.329
  N       51.854    -764.045     884.341
  C       50.822    -763.482     885.016
  C       49.929    -762.528     884.588
  C       50.084    -762.033     883.231
  O       49.392    -761.180     882.694
  N       49.067    -762.179     885.594
  C       49.444    -762.904     886.635
  N       50.508    -763.719     886.326
  O       48.171    -764.460     892.827
  O       50.506    -765.253     893.545
  H       53.604    -764.781     886.150
  H       47.952    -764.835     893.711
  H       51.285    -762.334     881.617
  H       49.001    -762.868     887.615
  H       51.458    -765.503     886.704
  H       52.455    -762.814     887.864
  H       53.092    -763.829     881.366
  H       53.742    -764.136     889.453
  H       53.546    -764.823     882.701
  H       51.640    -766.036     889.777
  H       52.068    -764.329     891.477
  H       51.453    -763.041     890.409
  P       54.457    -766.778     889.404
  C       52.961    -768.913     889.516
  O       53.427    -767.742     890.177
  O       54.863    -765.700     890.514
  O       55.647    -767.448     888.810
  H       55.739    -765.929     890.881
  H       52.289    -769.442     890.159
  H       53.793    -769.542     889.275
  H       52.451    -768.636     888.617

 6  7  8  9  10  11  12  13  14  15  26  29  33  34 0
 6-311+G(2d,p)
 ****
 36  38  39  40  41 0
 6-311+G(2d,p)
 ****
 1  2  3  4  5  16  17  18  19  20  21  22  23  24  25 0
 3-21G
 ****
 27  28  30  31  32  35  37  42  43  44  45  46  47 0
 3-21G
 ****
 48  49 0
 3-21G
 ****


