%nproc=1
%NoSave
%Mem=1900MB
#P OB98/GEN NMR

erre ene a

0 1
  C     -305.208    -546.840    -477.605
  O     -306.170    -547.464    -476.744
  P     -307.458    -548.139    -477.418
  C     -309.228    -547.379    -475.671
  O     -308.517    -548.457    -476.260
  C     -309.916    -547.829    -474.378
  O     -308.939    -548.206    -473.367
  C     -310.788    -546.756    -473.738
  O     -312.075    -546.713    -474.340
  C     -310.902    -547.281    -472.314
  O     -311.892    -548.325    -472.250
  C     -309.498    -547.852    -472.073
  N     -307.929    -546.143    -467.572
  C     -308.850    -547.128    -467.876
  N     -309.427    -547.756    -466.832
  N     -309.163    -547.466    -469.102
  C     -308.494    -546.772    -470.044
  C     -307.564    -545.771    -469.865
  C     -307.224    -545.392    -468.515
  O     -306.438    -544.513    -468.179
  N     -307.110    -545.293    -471.069
  C     -307.745    -546.021    -471.974
  N     -308.611    -546.916    -471.401
  O     -306.924    -549.602    -477.816
  O     -307.991    -547.407    -478.604
  H     -311.739    -548.908    -473.015
  H     -307.423    -549.937    -478.584
  H     -307.725    -545.914    -466.612
  H     -307.607    -545.922    -473.042
  H     -309.522    -548.771    -471.459
  H     -311.211    -546.504    -471.610
  H     -309.190    -547.579    -465.866
  H     -310.287    -545.788    -473.747
  H     -310.079    -548.501    -467.037
  H     -310.530    -548.712    -474.611
  H     -309.974    -546.982    -476.368
  H     -308.531    -546.549    -475.492
  P     -312.593    -545.298    -474.900
  C     -315.006    -545.673    -474.033
  O     -314.160    -545.455    -475.141
  O     -311.962    -545.249    -476.373
  O     -312.173    -544.115    -474.082
  H     -311.770    -544.323    -476.622
  H     -316.045    -545.593    -474.360
  H     -314.826    -544.922    -473.254
  H     -314.843    -546.676    -473.626
  H     -304.411    -546.437    -477.016
  H     -305.679    -546.052    -478.154
  H     -304.816    -547.565    -478.287

 3  4  5  6  7  8  9  10  11  12  23  26  30  31 0
 6-311+G(2d,p)
 ****
 33  35  36  37  38 0
 6-311+G(2d,p)
 ****
 1  2  13  14  15  16  17  18  19  20  21  22  24  25 0
 3-21G
 ****
 27  28  29  32  34  39  40  41  42  43  44  45  46  47  48  49 0
 3-21G
 ****


