%nproc=1
%NoSave
%Mem=1900MB
#P OB98/GEN NMR

erre ene a

0 1
  C      410.950    -934.036     677.936
  O      410.127    -935.009     677.323
  H      411.962    -934.122     677.520
  H      411.004    -934.217     679.015
  H      410.579    -933.031     677.744
  P      408.563    -935.034     677.680
  C      409.018    -936.033     680.011
  O      408.455    -934.945     679.281
  C      409.177    -935.668     681.483
  O      407.857    -935.577     682.087
  C      410.000    -936.679     682.283
  O      410.794    -935.977     683.238
  C      408.943    -937.494     683.007
  O      409.432    -938.068     684.217
  C      407.842    -936.452     683.232
  N      405.028    -939.374     686.233
  C      406.290    -938.863     686.428
  N      406.920    -939.189     687.580
  N      406.894    -938.085     685.562
  C      406.153    -937.820     684.461
  C      404.885    -938.270     684.155
  C      404.229    -939.140     685.122
  O      403.110    -939.630     685.003
  N      404.475    -937.809     682.935
  C      405.493    -937.088     682.493
  N      406.534    -937.075     683.384
  O      407.787    -936.155     677.068
  O      408.033    -933.605     677.196
  H      409.658    -937.321     684.820
  H      407.583    -933.677     676.335
  H      404.609    -939.970     686.927
  H      405.526    -936.562     681.554
  H      408.017    -935.850     684.133
  H      408.582    -938.308     682.356
  H      406.503    -939.768     688.295
  H      410.635    -937.308     681.652
  H      407.842    -938.810     687.751
  H      409.625    -934.661     681.548
  H      409.999    -936.266     679.576
  H      408.365    -936.916     679.901
  P      412.350    -935.752     682.919
  C      413.368    -937.421     684.590
  O      413.131    -937.118     683.218
  O      412.961    -934.516     683.514
  O      412.378    -935.678     681.307
  H      413.113    -935.094     681.030
  H      413.893    -938.350     684.664
  H      412.433    -937.497     685.105
  H      413.956    -936.643     685.031

 6  7  8  9  10  11  12  13  14  15  26  29  33  34 0
 6-311+G(2d,p)
 ****
 36  38  39  40  41 0
 6-311+G(2d,p)
 ****
 1  2  3  4  5  16  17  18  19  20  21  22  23  24  25 0
 3-21G
 ****
 27  28  30  31  32  35  37  42  43  44  45  46  47 0
 3-21G
 ****
 48  49 0
 3-21G
 ****


