%nproc=1
%NoSave
%Mem=1900MB
#P OB98/GEN NMR

erre ene a

0 1
  C     -159.049      42.284      23.308
  O     -159.751      42.983      22.303
  H     -159.636      42.312      24.231
  H     -158.088      42.768      23.496
  H     -158.891      41.239      23.026
  P     -159.258      42.864      20.783
  C     -160.442      40.901      19.594
  O     -160.503      42.274      19.958
  C     -161.841      40.389      19.245
  O     -162.601      40.250      20.487
  C     -162.629      41.336      18.317
  O     -163.460      40.547      17.457
  C     -163.484      42.093      19.314
  O     -164.597      42.695      18.703
  C     -163.826      40.986      20.309
  N     -164.335      41.533      21.565
  C     -165.693      41.820      21.618
  O     -166.465      41.651      20.676
  N     -166.139      42.391      22.780
  C     -165.359      42.794      23.823
  O     -165.799      43.369      24.805
  C     -163.919      42.511      23.687
  C     -163.480      41.898      22.586
  O     -157.971      42.141      20.568
  O     -159.201      44.378      20.265
  H     -164.299      43.342      18.035
  H     -158.614      44.450      19.488
  H     -167.125      42.597      22.838
  H     -163.266      42.830      24.490
  H     -162.424      41.690      22.445
  H     -164.569      40.299      19.889
  H     -162.894      42.884      19.790
  H     -161.985      41.985      17.722
  H     -161.758      39.386      18.810
  H     -160.041      40.338      20.445
  H     -159.773      40.780      18.738
  P     -163.283      40.557      15.863
  C     -161.027      39.332      15.890
  O     -162.360      39.327      15.389
  O     -162.868      41.881      15.302
  O     -164.734      40.165      15.304
  H     -164.971      40.767      14.574
  H     -160.503      38.477      15.517
  H     -161.048      39.299      16.959
  H     -160.529      40.224      15.570

 6  7  8  9  10  11  12  13  14  15  16  26  31  32  33  34  35 0
 6-311+G(2d,p)
 ****
 36  37 0
 6-311+G(2d,p)
 ****
 1  2  3  4  5  17  18  19  20  21  22  23  24  25 0
 3-21G
 ****
 27  28  29  30  38  39  40  41  42  43  44  45 0
 3-21G
 ****


