%nproc=1
%NoSave
%Mem=1900MB
#P OB98/GEN NMR

erre ene a

0 1
  C     -326.469     -96.091      93.042
  O     -327.343     -95.003      93.266
  H     -326.940     -97.006      93.410
  H     -325.531     -95.936      93.581
  H     -326.265     -96.204      91.973
  P     -326.894     -93.575      92.694
  C     -327.694     -94.270      90.314
  O     -327.769     -93.324      91.370
  C     -328.612     -93.841      89.166
  O     -329.924     -93.536      89.714
  C     -328.119     -92.591      88.429
  O     -328.422     -92.716      87.037
  C     -328.954     -91.475      89.038
  O     -329.081     -90.334      88.203
  C     -330.280     -92.206      89.279
  N     -331.113     -91.541      90.280
  C     -332.491     -91.690      90.167
  O     -333.056     -92.400      89.333
  N     -333.240     -90.979      91.070
  C     -332.759     -90.134      92.032
  O     -333.483     -89.508      92.794
  C     -331.294     -90.012      92.095
  C     -330.552     -90.707      91.230
  O     -325.427     -93.854      92.114
  O     -326.918     -92.449      93.672
  H     -324.751     -93.695      92.800
  H     -328.199     -89.913      88.131
  H     -334.241     -91.076      91.003
  H     -330.877     -89.346      92.839
  H     -329.471     -90.629      91.243
  H     -330.838     -92.305      88.339
  H     -328.513     -91.153      89.988
  H     -327.050     -92.412      88.561
  H     -328.737     -94.683      88.475
  H     -328.014     -95.249      90.685
  H     -326.657     -94.341      89.964
  P     -327.191     -92.960      86.033
  C     -326.401     -95.450      85.906
  O     -327.346     -94.473      85.508
  O     -325.961     -93.014      87.048
  O     -327.094     -91.918      84.968
  H     -326.172     -93.449      87.893
  H     -326.656     -96.392      85.467
  H     -326.408     -95.539      86.972
  H     -325.425     -95.157      85.579

 6  7  8  9  10  11  12  13  14  15  16  27  31  32  33  34  35 0
 6-311+G(2d,p)
 ****
 36  37 0
 6-311+G(2d,p)
 ****
 1  2  3  4  5  17  18  19  20  21  22  23  24  25 0
 3-21G
 ****
 26  28  29  30  38  39  40  41  42  43  44  45 0
 3-21G
 ****


