%nproc=1
%NoSave
%Mem=1900MB
#P OB98/GEN NMR

erre ene a

0 1
  C     -220.793     -77.395     101.647
  O     -221.107     -76.681     102.848
  P     -222.540     -76.856     103.552
  C     -222.680     -79.304     104.295
  O     -222.421     -77.964     104.712
  C     -221.948     -80.357     105.139
  O     -220.521     -80.103     105.164
  C     -222.414     -80.451     106.598
  O     -222.280     -81.830     106.963
  C     -221.389     -79.597     107.320
  O     -221.344     -79.858     108.717
  C     -220.115     -79.944     106.537
  N     -219.076     -78.928     106.685
  C     -218.162     -79.103     107.726
  O     -218.283     -80.048     108.509
  N     -217.160     -78.177     107.891
  C     -217.136     -77.119     107.139
  N     -216.133     -76.223     107.361
  C     -218.131     -76.849     106.082
  C     -219.058     -77.792     105.905
  O     -223.679     -77.063     102.607
  O     -222.732     -75.489     104.373
  H     -221.149     -80.812     108.845
  H     -223.684     -75.278     104.432
  H     -218.088     -75.938     105.501
  H     -219.828     -77.691     105.151
  H     -219.706     -80.909     106.875
  H     -221.635     -78.532     107.187
  H     -223.437     -80.105     106.750
  H     -222.085     -81.326     104.643
  H     -215.485     -76.432     108.113
  H     -222.368     -79.406     103.248
  H     -216.089     -75.318     106.916
  H     -223.760     -79.483     104.329
  P     -223.505     -82.860     106.864
  C     -223.910     -83.111     104.348
  O     -223.311     -83.678     105.501
  O     -224.855     -82.244     107.040
  O     -223.210     -83.956     107.998
  H     -224.035     -84.446     108.190
  H     -223.538     -83.628     103.461
  H     -223.664     -82.045     104.265
  H     -224.997     -83.224     104.399
  H     -219.800     -77.148     101.334
  H     -221.487     -77.123     100.879
  H     -220.858     -78.447     101.830

 3  4  5  6  7  8  9  10  11  12  13  23  27  28  29  30  32 0
 6-311+G(2d,p)
 ****
 34  35 0
 6-311+G(2d,p)
 ****
 1  2  14  15  16  17  18  19  20  21  22  24  25  26 0
 3-21G
 ****
 31  33  36  37  38  39  40  41  42  43  44  45  46 0
 3-21G
 ****


