%nproc=1
%NoSave
%Mem=1900MB
#P OB98/GEN NMR

erre ene a

0 1
  C      624.511    -369.459    -243.565
  O      625.003    -368.663    -244.628
  H      624.971    -369.152    -242.619
  H      623.429    -369.318    -243.493
  H      624.720    -370.514    -243.755
  P      626.581    -368.730    -244.912
  C      626.326    -368.121    -247.426
  O      626.841    -367.749    -246.158
  C      625.705    -366.902    -248.107
  O      624.614    -366.392    -247.299
  C      626.665    -365.733    -248.296
  O      627.492    -365.902    -249.435
  C      625.677    -364.594    -248.492
  O      625.136    -364.638    -249.824
  C      624.590    -364.946    -247.468
  N      624.759    -360.482    -244.960
  C      624.560    -360.782    -246.258
  N      624.533    -361.989    -246.850
  C      624.748    -362.961    -245.942
  C      624.968    -362.815    -244.586
  C      624.969    -361.496    -244.086
  N      625.182    -361.191    -242.762
  N      625.182    -364.042    -243.985
  C      625.045    -364.913    -244.963
  N      624.792    -364.314    -246.169
  O      626.785    -370.191    -245.549
  O      627.467    -368.496    -243.732
  H      624.373    -364.025    -249.831
  H      627.719    -370.460    -245.464
  H      624.400    -359.924    -246.920
  H      625.132    -365.992    -244.853
  H      623.585    -364.669    -247.806
  H      626.135    -363.605    -248.357
  H      627.257    -365.547    -247.395
  H      625.283    -367.227    -249.064
  H      625.562    -368.893    -247.292
  H      625.350    -360.217    -242.546
  H      625.488    -361.919    -242.142
  H      627.139    -368.527    -248.040
  P      628.991    -365.340    -249.345
  C      629.883    -366.948    -251.194
  O      629.645    -365.596    -250.786
  O      629.727    -366.406    -248.408
  O      629.110    -363.943    -248.818
  H      630.483    -366.000    -247.938
  H      630.319    -366.954    -252.171
  H      628.957    -367.483    -251.214
  H      630.551    -367.417    -250.502

 6  7  8  9  10  11  12  13  14  15  25  28  32  33  34  35 0
 6-311+G(2d,p)
 ****
 36  39  40 0
 6-311+G(2d,p)
 ****
 1  2  3  4  5  16  17  18  19  20  21  22  23  24 0
 3-21G
 ****
 26  27  29  30  31  37  38  41  42  43  44  45  46  47 0
 3-21G
 ****
 48 0
 3-21G
 ****


