%nproc=1
%NoSave
%Mem=1900MB
#P OB98/GEN NMR

erre ene a

0 1
  C      111.853     668.454     228.412
  O      111.975     668.255     229.822
  P      112.560     666.893     230.450
  C      114.834     668.022     230.887
  O      114.153     666.904     230.323
  C      116.047     667.588     231.723
  O      115.630     666.808     232.864
  C      117.052     666.720     230.965
  O      117.872     667.519     230.133
  C      117.776     666.038     232.128
  O      118.778     666.909     232.676
  C      116.650     665.822     233.135
  N      117.637     660.822     233.588
  C      118.413     661.922     233.750
  N      118.073     663.219     233.604
  C      116.779     663.332     233.286
  C      115.866     662.305     233.076
  C      116.347     660.996     233.237
  N      115.555     659.885     233.054
  N      114.634     662.816     232.723
  C      114.798     664.129     232.738
  N      116.073     664.488     233.068
  O      111.904     665.654     229.931
  O      112.321     667.037     232.033
  H      118.316     667.627     233.153
  H      112.213     666.152     232.428
  H      119.448     661.724     234.041
  H      114.013     664.847     232.520
  H      116.976     665.984     234.158
  H      118.286     665.121     231.822
  H      116.530     665.970     230.374
  H      116.526     668.496     232.105
  H      114.130     668.559     231.530
  H      115.984     658.978     233.166
  H      114.607     660.001     232.751
  H      115.154     668.682     230.081
  P      117.331     668.025     228.715
  C      117.378     670.555     229.174
  O      116.561     669.411     228.974
  O      116.567     667.016     227.924
  O      118.655     668.496     227.952
  H      118.522     668.378     226.985
  H      117.740     670.560     230.209
  H      116.773     671.448     228.999
  H      118.233     670.552     228.486
  H      111.443     669.424     228.223
  H      111.206     667.707     228.001
  H      112.818     668.379     227.956

 3  4  5  6  7  8  9  10  11  12  22  25  29  30  31  32 0
 6-311+G(2d,p)
 ****
 33  36  37 0
 6-311+G(2d,p)
 ****
 1  2  13  14  15  16  17  18  19  20  21  23  24  26 0
 3-21G
 ****
 27  28  34  35  38  39  40  41  42  43  44  45  46  47  48 0
 3-21G
 ****


