%nproc=1
%NoSave
%Mem=1900MB
#P OB98/GEN NMR

erre ene a

0 1
  C      -26.625     302.640    -406.381
  O      -26.996     301.404    -405.803
  H      -25.601     302.553    -406.759
  H      -26.653     303.435    -405.632
  H      -27.284     302.892    -407.217
  P      -28.510     301.210    -405.308
  C      -28.843     301.217    -402.749
  O      -28.650     301.999    -403.921
  C      -27.736     300.171    -402.640
  O      -26.469     300.739    -403.039
  C      -27.525     299.639    -401.226
  O      -28.533     298.716    -400.870
  C      -26.132     299.049    -401.344
  O      -26.176     297.745    -401.948
  C      -25.440     300.068    -402.276
  N      -24.601     301.027    -401.554
  C      -23.223     300.844    -401.650
  O      -22.708     299.920    -402.276
  N      -22.457     301.752    -400.972
  C      -22.916     302.729    -400.135
  O      -22.182     303.461    -399.482
  C      -24.380     302.858    -400.051
  C      -25.143     302.015    -400.753
  O      -29.006     299.803    -405.288
  O      -29.357     302.114    -406.324
  H      -26.586     297.152    -401.288
  H      -29.816     301.537    -406.967
  H      -21.459     301.631    -401.019
  H      -24.787     303.626    -399.412
  H      -26.221     302.089    -400.700
  H      -24.804     299.542    -403.007
  H      -25.646     298.935    -400.375
  H      -27.496     300.475    -400.513
  H      -27.969     299.349    -403.331
  H      -29.812     300.714    -402.816
  H      -28.843     301.877    -401.875
  P      -28.824     298.402    -399.327
  C      -28.335     296.169    -398.152
  O      -27.783     297.279    -398.852
  O      -30.249     298.130    -398.986
  O      -28.303     299.716    -398.567
  H      -29.046     300.128    -398.088
  H      -27.552     295.489    -397.887
  H      -29.044     295.669    -398.778
  H      -28.824     296.514    -397.265

 6  7  8  9  10  11  12  13  14  15  16  26  31  32  33  34  35 0
 6-311+G(2d,p)
 ****
 36  37 0
 6-311+G(2d,p)
 ****
 1  2  3  4  5  17  18  19  20  21  22  23  24  25 0
 3-21G
 ****
 27  28  29  30  38  39  40  41  42  43  44  45 0
 3-21G
 ****


