%nproc=1
%NoSave
%Mem=1900MB
#P OB98/GEN NMR

erre ene a

0 1
  C      698.184    -899.063    -413.343
  O      697.196    -898.063    -413.161
  P      697.544    -896.563    -413.635
  C      696.016    -896.703    -415.749
  O      697.323    -896.513    -415.226
  C      695.724    -895.673    -416.828
  O      695.945    -894.353    -416.283
  C      696.592    -895.803    -418.093
  O      695.786    -895.383    -419.199
  C      697.685    -894.793    -417.850
  O      698.330    -894.373    -419.059
  C      696.913    -893.693    -417.139
  N      699.640    -889.433    -417.059
  C      698.949    -890.033    -418.102
  N      698.938    -889.363    -419.272
  N      698.319    -891.163    -417.999
  C      698.407    -891.723    -416.773
  C      699.080    -891.243    -415.665
  C      699.727    -889.963    -415.772
  O      700.275    -889.353    -414.858
  N      698.998    -892.123    -414.618
  C      698.212    -893.073    -415.053
  N      697.792    -892.853    -416.336
  O      699.139    -896.503    -413.474
  O      696.841    -895.473    -412.889
  H      698.828    -893.553    -418.869
  H      699.382    -896.123    -412.606
  H      700.085    -888.533    -417.187
  H      697.915    -893.953    -414.497
  H      696.369    -893.033    -417.830
  H      698.460    -895.223    -417.195
  H      699.380    -888.453    -419.417
  H      696.960    -896.813    -418.261
  H      698.420    -889.753    -420.048
  H      694.655    -895.743    -417.092
  H      695.291    -896.573    -414.933
  H      695.917    -897.733    -416.130
  P      696.117    -895.983    -420.648
  C      693.856    -897.183    -421.030
  O      695.246    -897.323    -420.830
  O      697.605    -896.553    -420.469
  O      696.056    -895.003    -421.770
  H      698.086    -896.473    -421.306
  H      693.477    -898.093    -421.529
  H      693.620    -896.333    -421.661
  H      693.351    -897.073    -420.063
  H      697.813    -900.000    -412.984
  H      699.066    -898.796    -412.799
  H      698.419    -899.147    -414.384

 3  4  5  6  7  8  9  10  11  12  23  26  30  31 0
 6-311+G(2d,p)
 ****
 33  35  36  37  38 0
 6-311+G(2d,p)
 ****
 1  2  13  14  15  16  17  18  19  20  21  22  24  25 0
 3-21G
 ****
 27  28  29  32  34  39  40  41  42  43  44  45  46  47  48  49 0
 3-21G
 ****


