%nproc=1
%NoSave
%Mem=1900MB
#P OB98/GEN NMR

erre ene a

0 1
  C      199.888     222.121      48.146
  O      200.636     222.865      47.201
  P      201.369     224.194      47.734
  C      203.448     223.638      46.255
  O      202.457     224.582      46.626
  C      204.046     224.024      44.902
  O      204.595     225.355      44.957
  C      205.177     223.117      44.436
  O      204.658     221.939      43.844
  C      205.913     224.026      43.459
  O      205.257     224.040      42.177
  C      205.804     225.392      44.151
  N      209.596     228.666      44.812
  C      208.718     228.526      43.755
  N      208.843     229.417      42.749
  N      207.799     227.599      43.690
  C      207.800     226.770      44.761
  C      208.626     226.796      45.860
  C      209.603     227.859      45.942
  O      210.336     228.085      46.899
  N      208.341     225.777      46.729
  C      207.322     225.156      46.170
  N      206.942     225.731      44.985
  O      202.236     223.659      48.965
  O      200.453     225.313      48.118
  H      205.604     223.312      41.631
  H      201.780     223.832      49.811
  H      210.271     229.410      44.815
  H      206.813     224.303      46.592
  H      205.685     226.209      43.429
  H      206.940     223.693      43.281
  H      209.542     230.143      42.718
  H      205.837     222.867      45.276
  H      208.210     229.328      41.962
  H      203.232     224.029      44.165
  H      202.988     222.648      46.178
  H      204.222     223.609      47.027
  P      205.022     220.539      44.535
  C      203.154     219.557      43.025
  O      204.434     219.381      43.601
  O      204.074     220.511      45.827
  O      206.458     220.391      44.914
  H      204.543     220.078      46.566
  H      203.121     219.018      42.076
  H      202.931     220.612      42.845
  H      202.400     219.140      43.697
  H      199.455     221.268      47.666
  H      199.111     222.736      48.550
  H      200.533     221.797      48.936

 3  4  5  6  7  8  9  10  11  12  23  26  30  31 0
 6-311+G(2d,p)
 ****
 33  35  36  37  38 0
 6-311+G(2d,p)
 ****
 1  2  13  14  15  16  17  18  19  20  21  22  24  25 0
 3-21G
 ****
 27  28  29  32  34  39  40  41  42  43  44  45  46  47  48  49 0
 3-21G
 ****


