%nproc=1
%NoSave
%Mem=1900MB
#P OB98/GEN NMR

erre ene a

0 1
  C       46.603     698.403     561.063
  O       47.116     699.446     560.254
  P       46.089     700.227     559.299
  C       46.292     699.907     556.706
  O       45.918     699.355     557.973
  C       47.789     699.742     556.494
  O       48.164     698.340     556.600
  C       48.265     700.179     555.113
  O       48.391     701.586     555.037
  C       49.593     699.442     554.985
  O       50.640     700.168     555.645
  C       49.298     698.121     555.736
  N       49.072     697.005     554.819
  C       50.217     696.364     554.346
  O       51.353     696.715     554.653
  N       50.009     695.326     553.479
  C       48.802     694.910     553.009
  O       48.669     694.008     552.180
  C       47.619     695.654     553.510
  C       47.809     696.641     554.374
  O       46.919     701.512     558.805
  O       44.813     700.622     559.951
  H       50.603     701.088     555.310
  H       46.326     702.275     558.719
  H       50.822     694.840     553.149
  H       46.652     695.347     553.151
  H       46.968     697.211     554.749
  H       50.136     697.866     556.391
  H       49.891     699.318     553.938
  H       47.571     699.810     554.346
  H       48.327     700.290     557.287
  H       46.026     700.977     556.708
  H       45.723     699.412     555.925
  P       48.301     702.259     553.581
  C       50.441     703.518     552.764
  O       49.818     702.288     553.055
  O       47.958     703.770     553.962
  O       47.299     701.599     552.692
  H       48.351     704.044     554.803
  H       50.119     704.307     553.450
  H       50.205     703.819     551.739
  H       51.522     703.396     552.850
  H       47.396     697.977     561.641
  H       46.171     697.648     560.440
  H       45.854     698.796     561.719

 3  4  5  6  7  8  9  10  11  12  13  23  28  29  30  31  32 0
 6-311+G(2d,p)
 ****
 33  34 0
 6-311+G(2d,p)
 ****
 1  2  14  15  16  17  18  19  20  21  22  24  25  26 0
 3-21G
 ****
 27  35  36  37  38  39  40  41  42  43  44  45 0
 3-21G
 ****


