%nproc=1
%NoSave
%Mem=1900MB
#P OB98/GEN NMR

erre ene a

0 1
  C     -242.791    -430.523     271.005
  O     -241.431    -430.138     270.836
  P     -240.326    -430.947     271.675
  C     -238.197    -430.209     270.383
  O     -238.985    -430.073     271.559
  C     -237.072    -429.184     270.366
  O     -237.628    -427.852     270.325
  C     -236.172    -429.211     271.591
  O     -235.186    -430.236     271.505
  C     -235.528    -427.833     271.516
  O     -234.427    -427.857     270.582
  C     -236.678    -426.963     270.971
  N     -237.022    -422.480     273.309
  C     -236.194    -422.882     272.279
  N     -235.353    -421.944     271.787
  N     -236.185    -424.093     271.783
  C     -237.102    -424.911     272.344
  C     -237.981    -424.633     273.373
  C     -237.948    -423.305     273.944
  O     -238.613    -422.913     274.906
  N     -238.773    -425.714     273.655
  C     -238.402    -426.633     272.786
  N     -237.374    -426.200     271.991
  O     -240.020    -432.218     270.751
  O     -240.739    -431.346     273.046
  H     -234.053    -426.954     270.561
  H     -239.689    -432.953     271.296
  H     -237.003    -421.533     273.642
  H     -238.847    -427.614     272.705
  H     -236.316    -426.268     270.201
  H     -235.128    -427.496     272.480
  H     -235.407    -420.967     272.035
  H     -236.757    -429.295     272.509
  H     -234.765    -422.210     271.002
  H     -236.483    -429.331     269.448
  H     -238.838    -430.052     269.505
  H     -237.790    -431.227     270.341
  P     -234.796    -430.974     272.877
  C     -234.910    -433.378     271.891
  O     -234.102    -432.344     272.429
  O     -236.209    -431.434     273.462
  O     -234.034    -430.125     273.838
  H     -236.162    -431.514     274.437
  H     -235.715    -432.969     271.274
  H     -235.335    -433.970     272.704
  H     -234.290    -434.023     271.264
  H     -243.415    -429.906     270.392
  H     -243.070    -430.405     272.031
  H     -242.910    -431.547     270.719

 3  4  5  6  7  8  9  10  11  12  23  26  30  31  33  0
 6-311+G(2d,p)
 ****
 35  36  37  38 0
 6-311+G(2d,p)
 ****
 1  2  13  14  15  16  17  18  19  20  21  22  24  25  27  28  29 0
 3-21G
 ****
 32  34  39  40  41  42  43  44  45  46  47  48  49 0
 3-21G
 ****


