%nproc=1
%NoSave
%Mem=1900MB
#P OB98/GEN NMR

erre ene a

0 1
  C     -384.127    -639.301     366.874
  O     -384.085    -639.846     368.177
  P     -382.859    -639.516     369.157
  C     -383.871    -637.270     369.898
  O     -382.774    -637.917     369.255
  C     -383.455    -636.792     371.288
  O     -382.844    -637.870     372.047
  C     -382.398    -635.698     371.279
  O     -382.763    -634.444     370.743
  C     -381.925    -635.726     372.719
  O     -382.809    -635.008     373.573
  C     -381.986    -637.244     373.037
  N     -380.660    -637.852     373.064
  C     -380.171    -638.183     374.322
  O     -380.784    -637.991     375.367
  N     -378.912    -638.725     374.351
  C     -378.097    -638.923     373.268
  O     -376.964    -639.371     373.373
  C     -378.667    -638.538     371.966
  C     -379.904    -638.026     371.917
  O     -381.570    -640.187     368.808
  O     -383.425    -639.917     370.599
  H     -382.722    -634.058     373.361
  H     -384.221    -639.425     370.874
  H     -378.528    -638.959     375.251
  H     -378.050    -638.694     371.091
  H     -380.340    -637.737     370.976
  H     -382.462    -637.412     374.014
  H     -380.933    -635.279     372.835
  H     -381.552    -636.040     370.658
  H     -384.350    -636.481     371.827
  H     -384.698    -637.984     369.995
  H     -384.215    -636.439     369.278
  P     -381.760    -633.507     369.916
  C     -382.332    -634.513     367.595
  O     -381.345    -634.280     368.573
  O     -380.670    -632.834     370.690
  O     -382.763    -632.381     369.353
  H     -382.281    -631.546     369.274
  H     -381.888    -635.085     366.776
  H     -382.705    -633.566     367.195
  H     -383.159    -635.091     368.021
  H     -385.015    -639.633     366.377
  H     -383.268    -639.625     366.324
  H     -384.130    -638.233     366.934

 3  4  5  6  7  8  9  10  11  12  13  23  28  29  30  31  32 0
 6-311+G(2d,p)
 ****
 33  34 0
 6-311+G(2d,p)
 ****
 1  2  14  15  16  17  18  19  20  21  22  24  25  26  27 0
 3-21G
 ****
 35  36  37  38  39  40  41  42  43  44  45 0
 3-21G
 ****


