%nproc=1
%NoSave
%Mem=1900MB
#P OB98/GEN NMR

erre ene a

0 1
  C      385.801    -724.430    -703.363
  O      385.693    -724.939    -702.032
  P      384.696    -724.209    -700.998
  C      383.142    -726.166    -700.328
  O      384.195    -725.295    -699.925
  C      383.273    -727.534    -699.632
  O      384.478    -728.227    -700.074
  C      383.351    -727.411    -698.108
  O      382.725    -728.542    -697.480
  C      384.849    -727.511    -697.839
  O      385.121    -727.900    -696.490
  C      385.250    -728.538    -698.908
  N      389.927    -730.182    -697.542
  C      388.691    -730.472    -697.065
  N      387.486    -730.013    -697.492
  C      387.638    -729.171    -698.534
  C      388.837    -728.789    -699.125
  C      390.024    -729.322    -698.583
  N      391.275    -729.010    -699.043
  N      388.612    -727.913    -700.174
  C      387.294    -727.734    -700.166
  N      386.670    -728.489    -699.222
  O      383.611    -723.391    -701.631
  O      385.700    -723.304    -700.137
  H      386.087    -727.932    -696.405
  H      385.269    -722.423    -699.993
  H      388.663    -731.152    -696.221
  H      386.764    -727.053    -700.832
  H      385.008    -729.562    -698.592
  H      385.322    -726.538    -698.028
  H      382.917    -726.486    -697.703
  H      382.411    -728.161    -699.936
  H      383.183    -726.309    -701.419
  H      392.077    -729.336    -698.533
  H      391.378    -728.257    -699.728
  H      382.174    -725.696    -700.114
  P      381.384    -728.222    -696.631
  C      380.321    -730.558    -697.166
  O      380.808    -729.649    -696.206
  O      380.438    -727.304    -697.351
  O      381.978    -727.595    -695.278
  H      382.695    -728.137    -694.861
  H      380.090    -731.523    -696.692
  H      381.075    -730.737    -697.942
  H      379.412    -730.171    -697.641
  H      386.499    -725.023    -703.916
  H      386.142    -723.416    -703.331
  H      384.843    -724.469    -703.839

 3  4  5  6  7  8  9  10  11  12  22  25  29  30  31  32 0
 6-311+G(2d,p)
 ****
 33  36  37 0
 6-311+G(2d,p)
 ****
 1  2  13  14  15  16  17  18  19  20  21  23  24  26 0
 3-21G
 ****
 27  28  34  35  38  39  40  41  42  43  44  45  46  47  48 0
 3-21G
 ****


