%nproc=1
%NoSave
%Mem=1900MB
#P OB98/GEN NMR

erre ene a

0 1
  C       23.704     -70.603    -101.525
  O       23.359     -70.985    -100.210
  H       24.721     -70.206    -101.517
  H       23.028     -69.825    -101.887
  H       23.671     -71.468    -102.194
  P       21.884     -71.546     -99.931
  C       22.186     -73.699     -98.541
  O       21.935     -72.298     -98.515
  C       23.696     -73.965     -98.590
  O       24.270     -73.472     -97.355
  C       24.025     -75.459     -98.714
  O       24.906     -75.746     -99.797
  C       24.475     -75.834     -97.307
  O       25.352     -76.939     -97.249
  C       25.057     -74.524     -96.767
  N       25.040     -74.427     -95.309
  C       25.709     -75.417     -94.594
  O       26.321     -76.356     -95.093
  N       25.661     -75.294     -93.228
  C       25.018     -74.317     -92.530
  O       25.014     -74.259     -91.306
  C       24.306     -73.317     -93.340
  C       24.348     -73.416     -94.670
  O       21.277     -72.340    -101.038
  O       21.024     -70.234     -99.609
  H       25.551     -77.101     -96.302
  H       20.458     -70.020    -100.375
  H       26.154     -75.996     -92.700
  H       23.774     -72.534     -92.817
  H       23.836     -72.694     -95.298
  H       26.091     -74.399     -97.093
  H       23.588     -76.097     -96.719
  H       23.127     -76.037     -98.963
  H       24.129     -73.385     -99.411
  H       21.699     -74.112     -99.431
  H       21.756     -74.167     -97.649
  P       24.487     -76.475    -101.152
  C       26.610     -76.079    -102.652
  O       25.812     -76.976    -101.892
  O       23.476     -75.766    -101.989
  O       23.817     -77.854    -100.651
  H       23.125     -78.076    -101.305
  H       27.446     -76.606    -103.063
  H       26.962     -75.291    -102.019
  H       26.024     -75.665    -103.446

 6  7  8  9  10  11  12  13  14  15  16  26  31  32  33  34  35 0
 6-311+G(2d,p)
 ****
 36  37 0
 6-311+G(2d,p)
 ****
 1  2  3  4  5  17  18  19  20  21  22  23  24  25 0
 3-21G
 ****
 27  28  29  30  38  39  40  41  42  43  44  45 0
 3-21G
 ****


