%nproc=1
%NoSave
%Mem=1900MB
#P OB98/GEN NMR

erre ene a

0 1
  C      534.586     463.617    -892.170
  O      535.856     463.040    -892.480
  P      535.963     462.266    -893.870
  C      538.430     463.034    -894.140
  O      537.516     461.951    -894.160
  C      539.853     462.532    -893.900
  O      540.086     462.156    -892.530
  C      540.218     461.306    -894.740
  O      540.546     461.706    -896.060
  C      541.414     460.747    -893.950
  O      542.636     461.414    -894.330
  C      541.029     461.071    -892.510
  N      542.059     457.511    -889.030
  C      542.920     458.377    -889.690
  N      544.209     458.317    -889.330
  N      542.512     459.251    -890.580
  C      541.193     459.202    -890.810
  C      540.238     458.398    -890.220
  C      540.680     457.437    -889.240
  O      539.968     456.657    -888.630
  N      538.972     458.682    -890.690
  C      539.186     459.556    -891.650
  N      540.498     459.960    -891.730
  O      535.605     463.411    -894.950
  O      535.038     461.103    -894.000
  H      542.831     461.201    -895.260
  H      534.737     463.232    -895.360
  H      542.414     456.850    -888.370
  H      538.416     459.970    -892.290
  H      541.905     461.442    -891.930
  H      541.561     459.696    -894.160
  H      544.596     457.668    -888.660
  H      539.394     460.601    -894.730
  H      544.868     458.961    -889.800
  H      540.545     463.364    -894.140
  H      538.160     463.756    -893.360
  H      538.359     463.567    -895.100
  P      539.592     461.231    -897.240
  C      540.030     462.748    -899.290
  O      540.324     461.546    -898.630
  O      538.382     462.305    -897.200
  O      539.063     459.848    -897.100
  H      537.527     461.849    -897.280
  H      540.922     463.075    -899.860
  H      539.776     463.545    -898.590
  H      539.210     462.583    -900.000
  H      534.639     464.105    -891.219
  H      533.844     462.847    -892.135
  H      534.325     464.330    -892.924

 3  4  5  6  7  8  9  10  11  12  23  26  30  31 0
 6-311+G(2d,p)
 ****
 33  35  36  37  38 0
 6-311+G(2d,p)
 ****
 1  2  13  14  15  16  17  18  19  20  21  22  24  25 0
 3-21G
 ****
 27  28  29  32  34  39  40  41  42  43  44  45  46  47  48  49 0
 3-21G
 ****


