%nproc=1
%NoSave
%Mem=1900MB
#P OB98/GEN NMR

erre ene a

0 1
  C     -127.655     -54.882    -155.017
  O     -127.520     -55.729    -156.139
  H     -128.328     -55.354    -154.297
  H     -128.091     -53.931    -155.331
  H     -126.688     -54.709    -154.537
  P     -126.295     -55.441    -157.133
  C     -124.249     -56.490    -155.928
  O     -125.246     -56.641    -156.928
  C     -123.360     -57.733    -155.869
  O     -122.173     -57.418    -155.080
  C     -124.035     -58.958    -155.229
  O     -123.593     -60.138    -155.911
  C     -123.447     -58.971    -153.830
  O     -123.498     -60.262    -153.233
  C     -122.034     -58.473    -154.112
  N     -120.024     -60.089    -149.808
  C     -120.429     -60.789    -150.927
  N     -120.345     -62.135    -150.875
  N     -120.885     -60.215    -152.009
  C     -120.900     -58.862    -151.935
  C     -120.531     -58.055    -150.888
  C     -120.043     -58.701    -149.687
  O     -119.690     -58.139    -148.657
  N     -120.754     -56.733    -151.185
  C     -121.275     -56.747    -152.400
  N     -121.384     -58.016    -152.896
  O     -125.573     -54.188    -156.445
  O     -126.672     -55.159    -158.548
  H     -122.983     -60.235    -152.402
  H     -125.896     -53.360    -156.846
  H     -119.696     -60.580    -148.994
  H     -121.604     -55.877    -152.948
  H     -121.392     -59.252    -154.542
  H     -123.992     -58.269    -153.187
  H     -119.975     -62.647    -150.089
  H     -125.129     -58.916    -155.233
  H     -120.601     -62.658    -151.704
  H     -123.017     -57.967    -156.884
  H     -124.733     -56.352    -154.956
  H     -123.647     -55.602    -156.151
  P     -124.428     -60.627    -157.189
  C     -123.744     -58.857    -158.971
  O     -123.633     -60.198    -158.514
  O     -125.695     -59.648    -157.188
  O     -124.844     -62.059    -157.129
  H     -126.481     -60.124    -157.514
  H     -123.159     -58.733    -159.858
  H     -123.388     -58.191    -158.213
  H     -124.769     -58.637    -159.186

 6  7  8  9  10  11  12  13  14  15  26  29  33  34 0
 6-311+G(2d,p)
 ****
 36  38  39  40  41 0
 6-311+G(2d,p)
 ****
 1  2  3  4  5  16  17  18  19  20  21  22  23  24  25 0
 3-21G
 ****
 27  28  30  31  32  35  37  42  43  44  45  46  47 0
 3-21G
 ****
 48  49 0
 3-21G
 ****


