%nproc=1
%NoSave
%Mem=1900MB
#P OB98/GEN NMR

erre ene a

0 1
  C       -5.879     -96.856     -18.481
  O       -6.420     -95.565     -18.673
  H       -6.616     -97.593     -18.812
  H       -5.675     -97.021     -17.421
  H       -4.965     -96.986     -19.065
  P       -5.494     -94.287     -18.400
  C       -5.928     -93.099     -20.649
  O       -6.109     -93.065     -19.241
  C       -7.170     -93.667     -21.342
  O       -8.347     -93.043     -20.768
  C       -7.200     -93.421     -22.853
  O       -7.771     -94.556     -23.501
  C       -8.123     -92.227     -22.997
  O       -8.752     -92.182     -24.275
  C       -9.098     -92.442     -21.841
  N      -12.436     -88.853     -23.065
  C      -12.134     -90.041     -23.698
  N      -12.807     -90.308     -24.838
  N      -11.247     -90.894     -23.256
  C      -10.667     -90.508     -22.093
  C      -10.879     -89.358     -21.370
  C      -11.848     -88.413     -21.883
  O      -12.146     -87.338     -21.374
  N      -10.083     -89.319     -20.253
  C       -9.391     -90.442     -20.303
  N       -9.700     -91.192     -21.406
  O       -4.030     -94.514     -18.611
  O       -5.812     -93.884     -16.887
  H       -9.374     -91.421     -24.261
  H       -5.082     -94.142     -16.295
  H      -13.119     -88.227     -23.454
  H       -8.656     -90.756     -19.574
  H       -9.921     -93.116     -22.109
  H       -7.553     -91.299     -22.863
  H      -13.520     -89.708     -25.223
  H       -6.207     -93.227     -23.259
  H      -12.627     -91.188     -25.306
  H       -7.235     -94.738     -21.116
  H       -5.063     -93.732     -20.868
  H       -5.725     -92.085     -21.012
  P       -6.819     -95.780     -23.911
  C       -8.356     -97.730     -23.251
  O       -7.735     -97.034     -24.322
  O       -5.723     -96.091     -22.947
  O       -6.222     -95.307     -25.323
  H       -5.304     -95.635     -25.402
  H       -8.937     -98.540     -23.641
  H       -8.994     -97.060     -22.713
  H       -7.605     -98.114     -22.592

 6  7  8  9  10  11  12  13  14  15  26  29  33  34 0
 6-311+G(2d,p)
 ****
 36  38  39  40  41 0
 6-311+G(2d,p)
 ****
 1  2  3  4  5  16  17  18  19  20  21  22  23  24  25 0
 3-21G
 ****
 27  28  30  31  32  35  37  42  43  44  45  46  47 0
 3-21G
 ****
 48  49 0
 3-21G
 ****


