%nproc=1
%NoSave
%Mem=1900MB
#P OB98/GEN NMR

erre ene a

0 1
  C      -94.582      -1.473     100.888
  O      -94.242      -0.222     100.279
  P      -95.359       0.759      99.674
  C      -96.058       2.687     101.218
  O      -95.145       2.261     100.212
  C      -95.455       3.719     102.183
  O      -94.231       3.214     102.787
  C      -95.109       5.074     101.548
  O      -95.288       6.048     102.578
  C      -93.631       4.903     101.225
  O      -92.949       6.133     101.023
  C      -93.166       4.125     102.454
  N      -88.178       4.574     101.364
  C      -89.105       5.489     101.724
  N      -90.402       5.288     102.036
  C      -90.711       3.981     101.988
  C      -89.870       2.929     101.650
  C      -88.547       3.270     101.310
  N      -87.610       2.347     100.899
  N      -90.551       1.727     101.679
  C      -91.783       2.047     102.026
  N      -91.930       3.400     102.227
  O      -96.760       0.254      99.819
  O      -94.984       0.869      98.117
  H      -92.947       6.625     101.867
  H      -95.794       0.767      97.583
  H      -88.760       6.519     101.763
  H      -92.608       1.356     102.121
  H      -93.012       4.791     103.314
  H      -93.530       4.312     100.305
  H      -95.712       5.314     100.673
  H      -96.172       3.858     103.005
  H      -96.388       1.805     101.787
  H      -86.718       2.695     100.592
  H      -87.899       1.391     100.733
  H      -96.942       3.117     100.732
  P      -96.493       7.106     102.538
  C      -98.477       6.535     104.054
  O      -97.172       7.082     103.992
  O      -97.445       6.932     101.398
  O      -95.773       8.536     102.491
  H      -96.406       9.208     102.162
  H      -99.202       7.257     103.662
  H      -98.720       6.309     105.094
  H      -98.540       5.606     103.472
  H      -93.690      -1.962     101.220
  H      -95.084      -2.093     100.174
  H      -95.226      -1.299     101.724

 3  4  5  6  7  8  9  10  11  12  22  25  29  30  31  32 0
 6-311+G(2d,p)
 ****
 33  36  37 0
 6-311+G(2d,p)
 ****
 1  2  13  14  15  16  17  18  19  20  21  23  24  26 0
 3-21G
 ****
 27  28  34  35  38  39  40  41  42  43  44  45  46  47  48 0
 3-21G
 ****


