%nproc=1
%NoSave
%Mem=1900MB
#P OB98/GEN NMR

erre ene a

0 1
  C       49.192      59.071    -381.364
  O       48.423      58.987    -382.549
  H       48.598      59.573    -380.599
  H       50.098      59.660    -381.547
  H       49.463      58.073    -381.003
  P       49.010      58.167    -383.799
  C       49.856      60.380    -384.831
  O       50.188      59.055    -384.439
  C       51.081      61.113    -385.389
  O       51.539      60.422    -386.580
  C       50.816      62.574    -385.764
  O       51.964      63.365    -385.444
  C       50.635      62.524    -387.271
  O       50.956      63.766    -387.897
  C       51.571      61.379    -387.663
  N       51.707      61.807    -392.698
  C       52.304      62.591    -391.715
  N       53.020      63.647    -392.138
  N       52.191      62.350    -390.436
  C       51.454      61.239    -390.159
  C       50.817      60.392    -391.029
  C       50.934      60.680    -392.448
  O       50.413      60.042    -393.352
  N       50.157      59.391    -390.366
  C       50.395      59.633    -389.086
  N       51.166      60.755    -388.909
  O       47.981      57.694    -384.777
  O       49.795      56.939    -383.131
  H       50.788      63.657    -388.852
  H       49.293      56.115    -383.228
  H       51.814      62.049    -393.668
  H       50.027      59.041    -388.257
  H       52.614      61.710    -387.790
  H       49.591      62.277    -387.510
  H       53.172      63.876    -393.118
  H       49.936      62.980    -385.256
  H       53.493      64.212    -391.453
  H       51.889      61.038    -384.652
  H       49.472      60.914    -383.949
  H       49.059      60.351    -385.588
  P       51.918      64.331    -384.164
  C       50.559      66.425    -384.791
  O       50.520      65.136    -384.183
  O       53.128      65.175    -383.941
  O       51.698      63.299    -382.943
  H       52.172      63.639    -382.158
  H       49.586      66.868    -384.750
  H       50.864      66.329    -385.812
  H       51.256      67.045    -384.267

 6  7  8  9  10  11  12  13  14  15  26  29  33  34 0
 6-311+G(2d,p)
 ****
 36  38  39  40  41 0
 6-311+G(2d,p)
 ****
 1  2  3  4  5  16  17  18  19  20  21  22  23  24  25 0
 3-21G
 ****
 27  28  30  31  32  35  37  42  43  44  45  46  47 0
 3-21G
 ****
 48  49 0
 3-21G
 ****


