%nproc=1
%NoSave
%Mem=1900MB
#P OB98/GEN NMR

erre ene a

0 1
  C      -32.428     -69.483     -59.329
  O      -33.432     -68.489     -59.330
  H      -32.458     -70.050     -58.395
  H      -32.610     -70.169     -60.161
  H      -31.442     -69.026     -59.457
  P      -33.344     -67.368     -58.186
  C      -34.679     -68.715     -56.409
  O      -33.427     -68.161     -56.792
  C      -34.770     -68.770     -54.888
  O      -33.614     -69.445     -54.344
  C      -34.807     -67.404     -54.212
  O      -36.102     -66.830     -54.232
  C      -34.393     -67.782     -52.800
  O      -35.507     -68.381     -52.111
  C      -33.304     -68.830     -53.063
  N      -29.562     -66.662     -50.329
  C      -30.797     -67.090     -49.988
  N      -31.735     -67.652     -50.776
  C      -31.293     -67.757     -52.040
  C      -30.064     -67.358     -52.537
  C      -29.167     -66.791     -51.616
  N      -27.912     -66.340     -51.963
  N      -29.986     -67.597     -53.896
  C      -31.137     -68.160     -54.202
  N      -31.965     -68.270     -53.117
  O      -34.763     -66.632     -58.270
  O      -32.200     -66.418     -58.296
  H      -35.159     -68.728     -51.268
  H      -34.707     -65.748     -57.860
  H      -31.066     -66.962     -48.944
  H      -31.416     -68.504     -55.189
  H      -33.295     -69.626     -52.309
  H      -34.071     -66.926     -52.205
  H      -34.058     -66.724     -54.635
  H      -35.657     -69.361     -54.623
  H      -34.762     -69.728     -56.814
  H      -27.426     -65.786     -51.273
  H      -27.672     -66.296     -52.942
  H      -35.485     -68.099     -56.818
  P      -36.224     -65.304     -54.711
  C      -36.105     -64.562     -52.221
  O      -35.578     -64.424     -53.538
  O      -37.789     -65.007     -54.584
  O      -35.704     -65.037     -56.085
  H      -38.060     -64.302     -55.203
  H      -35.574     -63.915     -51.555
  H      -35.994     -65.576     -51.897
  H      -37.142     -64.299     -52.223

 6  7  8  9  10  11  12  13  14  15  25  28  32  33  34  35 0
 6-311+G(2d,p)
 ****
 36  39  40 0
 6-311+G(2d,p)
 ****
 1  2  3  4  5  16  17  18  19  20  21  22  23  24 0
 3-21G
 ****
 26  27  29  30  31  37  38  41  42  43  44  45  46  47 0
 3-21G
 ****
 48 0
 3-21G
 ****


