%nproc=1
%NoSave
%Mem=1900MB
#P OB98/GEN NMR

erre ene a

0 1
  C      353.749     177.058     586.776
  O      354.484     176.543     585.668
  P      353.796     175.568     584.589
  C      354.501     173.596     586.115
  O      353.456     174.224     585.390
  C      354.895     172.282     585.426
  O      355.873     171.617     586.280
  C      353.730     171.303     585.210
  O      353.997     170.613     583.978
  C      353.842     170.363     586.391
  O      353.206     169.111     586.154
  C      355.366     170.284     586.553
  N      355.770     169.843     587.892
  C      357.113     169.567     588.093
  O      357.945     169.679     587.188
  N      357.530     169.182     589.358
  C      356.646     168.992     590.293
  N      357.108     168.654     591.525
  C      355.197     169.166     590.077
  C      354.842     169.602     588.872
  O      354.589     175.379     583.335
  O      352.346     176.197     584.359
  H      353.724     168.631     585.477
  H      352.340     176.927     583.673
  H      354.498     168.967     590.875
  H      353.791     169.786     588.635
  H      355.800     169.609     585.789
  H      353.375     170.824     587.277
  H      352.768     171.813     585.145
  H      355.392     172.514     584.480
  H      358.101     168.736     591.681
  H      354.145     173.377     587.123
  H      356.537     168.828     592.358
  H      355.355     174.283     586.181
  P      352.749     170.298     583.000
  C      353.227     167.742     582.925
  O      352.307     168.767     583.244
  O      353.473     170.222     581.575
  O      351.656     171.316     582.970
  H      352.827     170.427     580.883
  H      352.763     166.774     583.159
  H      354.141     167.838     583.531
  H      353.475     167.756     581.853
  H      354.386     177.681     587.368
  H      353.388     176.247     587.373
  H      352.921     177.633     586.418

 3  4  5  6  7  8  9  10  11  12  13  23  27  28  29  30  32 0
 6-311+G(2d,p)
 ****
 34  35 0
 6-311+G(2d,p)
 ****
 1  2  14  15  16  17  18  19  20  21  22  24  25  26 0
 3-21G
 ****
 31  33  36  37  38  39  40  41  42  43  44  45  46 0
 3-21G
 ****


