%nproc=1
%NoSave
%Mem=1900MB
#P OB98/GEN NMR

erre ene a

0 1
  C     -376.913     -71.531    -119.962
  O     -377.891     -71.663    -120.972
  P     -379.350     -72.249    -120.657
  C     -380.342     -69.908    -121.030
  O     -380.217     -71.004    -120.135
  C     -381.763     -69.336    -121.013
  O     -381.734     -67.954    -121.463
  C     -382.765     -70.091    -121.900
  O     -384.027     -70.010    -121.232
  C     -382.777     -69.253    -123.163
  O     -383.930     -69.483    -123.963
  C     -382.647     -67.840    -122.576
  N     -382.190     -66.875    -123.568
  C     -382.831     -65.634    -123.576
  O     -383.785     -65.420    -122.824
  N     -382.414     -64.678    -124.469
  C     -381.511     -64.978    -125.348
  N     -381.134     -63.991    -126.206
  C     -380.898     -66.315    -125.456
  C     -381.270     -67.203    -124.535
  O     -379.373     -73.448    -119.769
  O     -379.970     -72.519    -122.107
  H     -383.893     -70.407    -124.295
  H     -379.592     -73.347    -122.495
  H     -380.189     -66.533    -126.241
  H     -380.876     -68.206    -124.534
  H     -383.611     -67.498    -122.176
  H     -381.897     -69.493    -123.771
  H     -382.487     -71.129    -122.084
  H     -382.112     -69.331    -119.974
  H     -381.567     -63.082    -126.084
  H     -380.122     -70.266    -122.039
  H     -380.381     -64.093    -126.870
  H     -379.608     -69.135    -120.780
  P     -385.014     -71.273    -121.162
  C     -384.001     -72.056    -118.946
  O     -384.275     -72.397    -120.294
  O     -385.535     -71.742    -122.483
  O     -386.206     -70.793    -120.204
  H     -386.966     -71.396    -120.308
  H     -383.768     -72.969    -118.390
  H     -384.865     -71.567    -118.482
  H     -383.141     -71.383    -118.906
  H     -376.018     -71.123    -120.383
  H     -376.703     -72.492    -119.541
  H     -377.277     -70.878    -119.196

 3  4  5  6  7  8  9  10  11  12  13  23  27  28  29  30  32 0
 6-311+G(2d,p)
 ****
 34  35 0
 6-311+G(2d,p)
 ****
 1  2  14  15  16  17  18  19  20  21  22  24  25  26 0
 3-21G
 ****
 31  33  36  37  38  39  40  41  42  43  44  45  46 0
 3-21G
 ****


