%nproc=1
%NoSave
%Mem=1900MB
#P OB98/GEN NMR

erre ene a

0 1
  C      672.394    -773.156     111.655
  O      672.722    -774.103     110.659
  H      672.659    -772.156     111.293
  H      672.966    -773.359     112.563
  H      671.323    -773.177     111.874
  P      672.275    -775.622     110.905
  C      672.723    -777.899     109.734
  O      673.000    -776.508     109.776
  C      673.419    -778.549     108.535
  O      672.749    -778.116     107.311
  C      674.904    -778.181     108.409
  O      675.625    -779.336     107.969
  C      674.919    -777.115     107.321
  O      676.180    -777.038     106.656
  C      673.749    -777.560     106.442
  N      673.216    -776.442     105.659
  C      672.975    -776.694     104.294
  O      673.213    -777.799     103.813
  N      672.520    -775.662     103.511
  C      672.404    -774.471     104.008
  N      671.977    -773.490     103.173
  C      672.714    -774.149     105.429
  C      673.102    -775.178     106.183
  O      670.741    -775.640     110.447
  O      672.458    -776.130     112.299
  H      676.836    -776.659     107.281
  H      670.220    -776.282     110.963
  H      672.629    -773.135     105.788
  H      673.356    -775.029     107.230
  H      674.071    -778.362     105.747
  H      674.711    -776.138     107.769
  H      675.337    -777.820     109.347
  H      673.285    -779.640     108.606
  H      671.791    -773.735     102.208
  H      671.639    -778.042     109.636
  H      671.896    -772.510     103.435
  H      673.060    -778.367     110.671
  P      676.910    -779.751     108.817
  C      678.206    -781.988     109.140
  O      677.467    -781.152     108.255
  O      676.311    -780.131     110.252
  O      677.948    -778.658     108.912
  H      676.539    -779.430     110.901
  H      678.506    -782.876     108.624
  H      677.593    -782.251     109.977
  H      679.074    -781.465     109.484

 6  7  8  9  10  11  12  13  14  15  16  26  30  31  32  33  35 0
 6-311+G(2d,p)
 ****
 37  38 0
 6-311+G(2d,p)
 ****
 1  2  3  4  5  17  18  19  20  21  22  23  24  25 0
 3-21G
 ****
 27  28  29  34  36  39  40  41  42  43  44  45  46 0
 3-21G
 ****


