%nproc=1
%NoSave
%Mem=1900MB
#P OB98/GEN NMR

erre ene a

0 1
  C      -67.449     226.038    -131.482
  O      -66.797     226.933    -130.569
  P      -67.048     226.725    -129.001
  C      -65.940     225.407    -127.048
  O      -65.962     225.687    -128.440
  C      -64.673     224.633    -126.675
  O      -64.562     223.400    -127.413
  C      -63.384     225.391    -126.962
  O      -63.081     226.315    -125.926
  C      -62.371     224.259    -126.974
  O      -62.024     223.900    -125.621
  C      -63.160     223.124    -127.637
  N      -60.179     221.042    -131.246
  C      -60.128     220.998    -129.896
  N      -60.946     221.591    -129.003
  C      -61.909     222.283    -129.631
  C      -62.091     222.422    -130.997
  C      -61.170     221.762    -131.826
  N      -61.229     221.810    -133.199
  N      -63.185     223.217    -131.268
  C      -63.666     223.540    -130.085
  N      -62.925     223.007    -129.064
  O      -68.412     225.885    -128.962
  O      -67.169     227.999    -128.233
  H      -62.851     223.628    -125.177
  H      -68.936     226.140    -128.180
  H      -59.319     220.403    -129.475
  H      -64.544     224.150    -129.918
  H      -62.940     222.146    -127.190
  H      -61.440     224.532    -127.477
  H      -63.423     225.873    -127.948
  H      -64.726     224.391    -125.605
  H      -66.828     224.834    -126.766
  H      -60.550     221.288    -133.729
  H      -61.978     222.327    -133.638
  H      -65.998     226.353    -126.494
  P      -62.660     227.799    -126.366
  C      -63.918     230.068    -126.509
  O      -63.994     228.678    -126.263
  O      -62.411     227.649    -127.939
  O      -61.463     228.334    -125.655
  H      -61.732     228.288    -128.234
  H      -64.926     230.448    -126.697
  H      -63.294     230.280    -127.382
  H      -63.506     230.575    -125.630
  H      -67.187     226.300    -132.486
  H      -68.509     226.113    -131.359
  H      -67.136     225.034    -131.282

 3  4  5  6  7  8  9  10  11  12  22  25  29  30  31  32 0
 6-311+G(2d,p)
 ****
 33  36  37 0
 6-311+G(2d,p)
 ****
 1  2  13  14  15  16  17  18  19  20  21  23  24  26 0
 3-21G
 ****
 27  28  34  35  38  39  40  41  42  43  44  45  46  47  48 0
 3-21G
 ****


