%nproc=1
%NoSave
%Mem=1900MB
#P OB98/GEN NMR

erre ene a

0 1
  C      331.042     292.174    -196.615
  O      329.934     291.313    -196.821
  P      329.350     291.188    -198.313
  C      330.610     289.015    -199.005
  O      330.458     290.414    -199.179
  C      330.338     288.275    -200.316
  O      330.754     286.892    -200.166
  C      328.866     288.261    -200.755
  O      328.854     288.262    -202.186
  C      328.372     286.918    -200.241
  O      327.207     286.464    -200.918
  C      329.613     286.060    -200.457
  N      330.318     281.053    -200.252
  C      330.295     281.901    -201.346
  N      330.555     281.336    -202.546
  N      330.040     283.182    -201.273
  C      329.817     283.605    -200.004
  C      329.772     282.859    -198.848
  C      330.091     281.454    -198.942
  O      330.209     280.681    -197.990
  N      329.425     283.626    -197.769
  C      329.339     284.846    -198.260
  N      329.613     284.893    -199.601
  O      329.429     292.691    -198.854
  O      327.975     290.608    -198.424
  H      327.103     285.507    -200.724
  H      328.583     293.159    -198.716
  H      330.536     280.076    -200.371
  H      329.089     285.735    -197.693
  H      329.707     285.706    -201.497
  H      328.131     286.996    -199.171
  H      330.787     280.362    -202.676
  H      328.286     289.100    -200.363
  H      330.576     281.940    -203.360
  H      330.964     288.721    -201.101
  H      329.892     288.669    -198.254
  H      331.620     288.797    -198.638
  P      327.515     288.743    -202.921
  C      328.376     291.166    -202.590
  O      327.273     290.277    -202.540
  O      326.365     287.977    -202.105
  O      327.444     288.409    -204.378
  H      325.624     287.772    -202.702
  H      328.000     292.187    -202.699
  H      329.031     290.938    -203.431
  H      328.946     291.095    -201.659
  H      331.320     292.157    -195.582
  H      330.776     293.171    -196.896
  H      331.866     291.843    -197.212

 3  4  5  6  7  8  9  10  11  12  23  26  30  31 0
 6-311+G(2d,p)
 ****
 33  35  36  37  38 0
 6-311+G(2d,p)
 ****
 1  2  13  14  15  16  17  18  19  20  21  22  24  25 0
 3-21G
 ****
 27  28  29  32  34  39  40  41  42  43  44  45  46  47  48  49 0
 3-21G
 ****


