%nproc=1
%NoSave
%Mem=1900MB
#P OB98/GEN NMR

erre ene a

0 1
  C       26.154      -5.623      46.354
  O       26.988      -6.605      46.933
  H       25.688      -6.046      45.460
  H       26.736      -4.746      46.064
  H       25.365      -5.333      47.054
  P       27.847      -6.218      48.229
  C       29.484      -7.613      49.655
  O       29.025      -7.301      48.343
  C       30.343      -8.882      49.625
  O       29.465     -10.003      49.355
  C       31.419      -8.838      48.529
  O       32.730      -9.107      49.021
  C       30.864      -9.766      47.456
  O       31.840     -10.361      46.628
  C       30.016     -10.758      48.260
  N       28.952     -11.392      47.485
  C       29.336     -12.264      46.471
  O       30.495     -12.561      46.192
  N       28.309     -12.824      45.754
  C       26.979     -12.598      45.942
  O       26.105     -13.135      45.273
  C       26.639     -11.650      47.013
  C       27.625     -11.098      47.724
  O       27.067      -6.009      49.483
  O       28.625      -4.887      47.794
  H       31.384     -10.997      46.040
  H       28.188      -4.110      48.189
  H       28.575     -13.467      45.024
  H       25.592     -11.439      47.184
  H       27.409     -10.395      48.523
  H       30.642     -11.549      48.673
  H       30.205      -9.179      46.804
  H       31.509      -7.828      48.112
  H       30.781      -9.036      50.617
  H       28.607      -7.764      50.291
  H       30.072      -6.777      50.048
  P       33.763      -7.993      49.508
  C       34.678      -7.241      51.847
  O       34.095      -8.261      51.050
  O       33.430      -6.591      49.122
  O       35.129      -8.396      48.749
  H       35.602      -7.560      48.565
  H       34.824      -7.606      52.842
  H       34.028      -6.391      51.870
  H       35.621      -6.957      51.429

 6  7  8  9  10  11  12  13  14  15  16  26  31  32  33  34  35 0
 6-311+G(2d,p)
 ****
 36  37 0
 6-311+G(2d,p)
 ****
 1  2  3  4  5  17  18  19  20  21  22  23  24  25 0
 3-21G
 ****
 27  28  29  30  38  39  40  41  42  43  44  45 0
 3-21G
 ****


