%nproc=1
%NoSave
%Mem=1900MB
#P OB98/GEN NMR

erre ene a

0 1
  C       93.490     -37.954      -0.670
  O       93.676     -36.984       0.336
  H       92.503     -37.807      -1.117
  H       93.531     -38.954      -0.229
  H       94.246     -37.867      -1.455
  P       95.162     -36.678       0.844
  C       95.851     -35.490      -1.340
  O       96.108     -36.567      -0.448
  C       96.661     -34.244      -0.978
  O       98.075     -34.522      -1.076
  C       96.392     -33.080      -1.932
  O       95.253     -32.297      -1.626
  C       97.672     -32.261      -1.792
  O       97.589     -31.368      -0.669
  C       98.735     -33.334      -1.547
  N      103.121     -32.695      -4.087
  C      102.713     -32.121      -2.899
  N      103.556     -31.218      -2.352
  N      101.574     -32.395      -2.320
  C      100.793     -33.242      -3.030
  C      101.084     -33.864      -4.224
  C      102.371     -33.595      -4.830
  O      102.778     -34.072      -5.885
  N      100.045     -34.661      -4.642
  C       99.103     -34.462      -3.744
  N       99.519     -33.629      -2.732
  O       95.630     -38.066       1.497
  O       95.284     -35.553       1.826
  H       97.467     -31.899       0.138
  H       96.307     -37.901       2.178
  H      104.020     -32.468      -4.473
  H       98.117     -34.913      -3.764
  H       99.440     -33.029      -0.763
  H       97.855     -31.642      -2.675
  H      104.386     -30.889      -2.820
  H       96.325     -33.440      -2.963
  H      103.184     -30.588      -1.639
  H       96.455     -33.971       0.063
  H       94.783     -35.274      -1.272
  H       96.056     -35.794      -2.371
  P       94.317     -31.750      -2.804
  C       92.903     -33.924      -3.024
  O       93.809     -33.027      -3.628
  O       95.362     -31.049      -3.791
  O       93.246     -30.810      -2.370
  H       95.398     -30.090      -3.617
  H       92.671     -34.712      -3.709
  H       92.006     -33.403      -2.763
  H       93.345     -34.337      -2.141

 6  7  8  9  10  11  12  13  14  15  26  29  33  34 0
 6-311+G(2d,p)
 ****
 36  38  39  40  41 0
 6-311+G(2d,p)
 ****
 1  2  3  4  5  16  17  18  19  20  21  22  23  24  25 0
 3-21G
 ****
 27  28  30  31  32  35  37  42  43  44  45  46  47 0
 3-21G
 ****
 48  49 0
 3-21G
 ****


