%nproc=1
%NoSave
%Mem=1900MB
#P OB98/GEN NMR

erre ene a

0 1
  C     -371.093     389.369     152.383
  O     -372.491     389.571     152.349
  H     -370.601     390.343     152.449
  H     -370.755     388.864     151.477
  H     -370.816     388.779     153.263
  P     -373.442     388.297     152.139
  C     -375.295     389.908     152.944
  O     -374.943     388.852     152.063
  C     -376.535     390.655     152.431
  O     -376.137     391.527     151.330
  C     -377.643     389.729     151.900
  O     -378.894     390.389     152.120
  C     -377.310     389.687     150.421
  O     -378.378     389.158     149.670
  C     -376.925     391.147     150.178
  N     -376.196     391.335     148.935
  C     -376.261     392.614     148.368
  O     -376.925     393.496     148.908
  N     -375.609     392.843     147.185
  C     -374.998     391.865     146.585
  N     -374.378     392.161     145.409
  C     -374.950     390.492     147.124
  C     -375.565     390.300     148.293
  O     -373.236     387.169     153.097
  O     -373.147     387.842     150.634
  H     -378.205     389.249     148.705
  H     -372.593     387.041     150.632
  H     -374.442     389.713     146.576
  H     -375.582     389.322     148.765
  H     -377.816     391.791     150.163
  H     -376.449     389.031     150.238
  H     -377.642     388.744     152.379
  H     -376.915     391.304     153.230
  H     -374.443     393.112     145.077
  H     -374.444     390.593     152.995
  H     -373.890     391.480     144.850
  H     -375.495     389.514     153.948
  P     -380.034     389.799     153.082
  C     -380.394     391.455     155.030
  O     -380.841     391.012     153.755
  O     -379.536     388.786     154.062
  O     -381.110     389.143     152.092
  H     -381.532     388.384     152.542
  H     -381.012     392.262     155.364
  H     -379.380     391.790     154.956
  H     -380.453     390.647     155.729

 6  7  8  9  10  11  12  13  14  15  16  26  30  31  32  33  35 0
 6-311+G(2d,p)
 ****
 37  38 0
 6-311+G(2d,p)
 ****
 1  2  3  4  5  17  18  19  20  21  22  23  24  25 0
 3-21G
 ****
 27  28  29  34  36  39  40  41  42  43  44  45  46 0
 3-21G
 ****


