%nproc=1
%NoSave
%Mem=1900MB
#P OB98/GEN NMR

erre ene a

0 1
  C      130.388      -3.493      11.573
  O      129.256      -4.014      10.902
  H      130.852      -2.730      10.942
  H      131.113      -4.292      11.751
  H      130.095      -3.037      12.522
  P      128.303      -4.976      11.755
  C      126.171      -4.574      10.283
  O      127.139      -5.492      10.771
  C      125.243      -5.270       9.292
  O      125.966      -5.684       8.116
  C      124.631      -6.561       9.810
  O      123.631      -6.338      10.780
  C      124.098      -7.160       8.516
  O      122.807      -6.639       8.182
  C      125.158      -6.704       7.483
  N      125.951      -7.818       6.998
  C      125.323      -8.631       6.045
  O      124.183      -8.366       5.663
  N      125.987      -9.737       5.585
  C      127.162     -10.024       6.053
  N      127.753     -11.153       5.579
  C      127.858      -9.195       7.057
  C      127.201      -8.116       7.484
  O      127.542      -3.947      12.713
  O      129.008      -6.075      12.476
  H      122.938      -5.689       7.981
  H      127.167      -3.182      12.248
  H      128.843      -9.470       7.406
  H      127.638      -7.452       8.221
  H      124.673      -6.228       6.621
  H      123.994      -8.246       8.588
  H      125.417      -7.223      10.195
  H      124.467      -4.554       8.990
  H      127.218     -11.721       4.933
  H      126.659      -3.716       9.809
  H      128.628     -11.517       5.926
  H      125.603      -4.201      11.141
  P      123.841      -6.767      12.307
  C      123.546      -4.358      13.171
  O      123.050      -5.691      13.203
  O      125.257      -6.986      12.721
  O      122.912      -8.064      12.450
  H      121.970      -7.915      12.262
  H      122.943      -3.738      13.801
  H      123.511      -3.988      12.168
  H      124.557      -4.345      13.520

 6  7  8  9  10  11  12  13  14  15  16  26  30  31  32  33  35 0
 6-311+G(2d,p)
 ****
 37  38 0
 6-311+G(2d,p)
 ****
 1  2  3  4  5  17  18  19  20  21  22  23  24  25 0
 3-21G
 ****
 27  28  29  34  36  39  40  41  42  43  44  45  46 0
 3-21G
 ****


