%nproc=1
%NoSave
%Mem=1900MB
#P OB98/GEN NMR

erre ene a

0 1
  C      -90.735      34.269     655.796
  O      -89.475      34.544     656.402
  P      -89.411      34.726     657.992
  C      -88.906      32.359     659.065
  O      -88.451      33.618     658.626
  C      -87.841      31.728     659.974
  O      -88.431      30.688     660.789
  C      -86.689      31.088     659.204
  O      -85.675      32.026     658.894
  C      -86.237      30.000     660.158
  O      -85.441      30.564     661.216
  C      -87.593      29.500     660.709
  N      -88.315      28.463     659.942
  C      -87.806      27.169     659.872
  O      -86.760      26.810     660.408
  N      -88.548      26.267     659.157
  C      -89.803      26.465     658.661
  O      -90.447      25.602     658.082
  C      -90.362      27.804     658.893
  C      -89.607      28.724     659.498
  O      -90.867      34.290     658.481
  O      -89.059      36.106     658.442
  H      -84.648      30.952     660.808
  H      -91.335      35.049     658.877
  H      -88.157      25.345     659.032
  H      -91.374      27.988     658.558
  H      -90.013      29.718     659.672
  H      -87.476      29.114     661.728
  H      -85.604      29.272     659.657
  H      -87.061      30.603     658.298
  H      -87.454      32.505     660.647
  H      -89.111      31.701     658.219
  H      -89.847      32.477     659.612
  P      -85.033      32.048     657.425
  C      -86.595      33.765     656.334
  O      -85.304      33.528     656.860
  O      -85.423      30.926     656.522
  O      -83.454      32.073     657.708
  H      -83.077      31.163     657.661
  H      -86.704      34.835     656.134
  H      -87.365      33.459     657.052
  H      -86.722      33.214     655.397
  H      -90.609      34.176     654.738
  H      -91.414      35.069     656.005
  H      -91.128      33.355     656.190

 3  4  5  6  7  8  9  10  11  12  13  23  28  29  30  31  32 0
 6-311+G(2d,p)
 ****
 33  34 0
 6-311+G(2d,p)
 ****
 1  2  14  15  16  17  18  19  20  21  22  24  25  26  27 0
 3-21G
 ****
 35  36  37  38  39  40  41  42  43  44  45 0
 3-21G
 ****


