%nproc=1
%NoSave
%Mem=1900MB
#P OB98/GEN NMR

erre ene a

0 1
  C       66.114      77.000      -3.049
  O       67.222      77.790      -2.681
  H       65.639      77.450      -3.924
  H       65.391      76.978      -2.229
  H       66.415      75.979      -3.300
  P       68.350      77.147      -1.748
  C       68.478      75.926       0.523
  O       67.636      76.552      -0.437
  C       67.865      75.965       1.923
  O       67.763      77.334       2.370
  C       66.450      75.381       1.961
  O       66.399      73.977       2.153
  C       65.837      76.119       3.149
  O       66.089      75.426       4.382
  C       66.558      77.471       3.136
  N       62.854      80.898       3.960
  C       63.262      79.852       4.767
  N       62.569      79.684       5.913
  N       64.245      79.047       4.458
  C       64.775      79.279       3.237
  C       64.441      80.271       2.342
  C       63.402      81.204       2.723
  O       63.016      82.156       2.053
  N       65.170      80.171       1.181
  C       65.877      79.070       1.343
  N       65.732      78.540       2.604
  O       69.126      78.426      -1.167
  O       69.304      76.219      -2.435
  H       65.621      74.569       4.348
  H       70.061      78.198      -1.015
  H       62.112      81.502       4.264
  H       66.542      78.640       0.603
  H       66.856      77.774       4.148
  H       64.752      76.190       3.044
  H       61.752      80.219       6.158
  H       65.893      75.659       1.063
  H       62.710      78.819       6.439
  H       68.532      75.448       2.624
  H       69.422      76.472       0.512
  H       68.691      74.895       0.227
  P       65.473      73.057       1.232
  C       62.991      73.203       0.389
  O       63.976      73.602       1.317
  O       65.411      71.680       2.044
  O       65.954      72.860      -0.168
  H       66.045      71.035       1.678
  H       62.064      73.682       0.625
  H       62.866      72.141       0.436
  H       63.296      73.483      -0.598

 6  7  8  9  10  11  12  13  14  15  26  29  33  34 0
 6-311+G(2d,p)
 ****
 36  38  39  40  41 0
 6-311+G(2d,p)
 ****
 1  2  3  4  5  16  17  18  19  20  21  22  23  24  25 0
 3-21G
 ****
 27  28  30  31  32  35  37  42  43  44  45  46  47 0
 3-21G
 ****
 48  49 0
 3-21G
 ****


