%nproc=1
%NoSave
%Mem=1900MB
#P OB98/GEN NMR

erre ene a

0 1
  C      -79.757      40.551     -40.510
  O      -80.916      41.258     -40.104
  P      -80.896      41.903     -38.631
  C      -82.514      40.870     -36.860
  O      -81.326      40.735     -37.624
  C      -83.730      40.594     -37.746
  O      -83.567      39.345     -38.446
  C      -85.046      40.488     -36.988
  O      -85.567      41.776     -36.716
  C      -85.892      39.673     -37.959
  O      -86.436      40.511     -38.995
  C      -84.862      38.688     -38.531
  N      -87.566      34.655     -37.128
  C      -87.979      35.854     -37.678
  N      -89.300      35.975     -37.930
  N      -87.170      36.842     -37.957
  C      -85.880      36.584     -37.639
  C      -85.351      35.445     -37.079
  C      -86.249      34.342     -36.824
  O      -85.920      33.226     -36.430
  N      -84.001      35.562     -36.881
  C      -83.711      36.758     -37.351
  N      -84.811      37.411     -37.842
  O      -82.155      42.886     -38.652
  O      -79.626      42.600     -38.260
  H      -87.196      41.006     -38.642
  H      -81.874      43.806     -38.823
  H      -88.232      33.924     -36.951
  H      -82.720      37.187     -37.378
  H      -85.044      38.471     -39.590
  H      -86.742      39.196     -37.464
  H      -89.985      35.268     -37.719
  H      -84.906      39.925     -36.057
  H      -89.622      36.850     -38.328
  H      -83.784      41.391     -38.499
  H      -82.577      41.890     -36.470
  H      -82.481      40.170     -36.019
  P      -86.741      41.886     -35.628
  C      -89.051      42.009     -36.804
  O      -88.037      41.189     -36.257
  O      -87.101      43.446     -35.633
  O      -86.362      41.420     -34.261
  H      -87.333      43.731     -34.729
  H      -89.549      41.462     -37.607
  H      -88.646      42.942     -37.206
  H      -89.783      42.242     -36.026
  H      -79.898      40.175     -41.502
  H      -79.584      39.735     -39.840
  H      -78.914      41.210     -40.495

 3  4  5  6  7  8  9  10  11  12  23  26  30  31 0
 6-311+G(2d,p)
 ****
 33  35  36  37  38 0
 6-311+G(2d,p)
 ****
 1  2  13  14  15  16  17  18  19  20  21  22  24  25 0
 3-21G
 ****
 27  28  29  32  34  39  40  41  42  43  44  45  46  47  48  49 0
 3-21G
 ****


