%nproc=1
%NoSave
%Mem=1900MB
#P OB98/GEN NMR

erre ene a

0 1
  C      177.254    -348.784     -96.284
  O      176.349    -349.837     -96.536
  H      177.765    -348.534     -97.217
  H      177.996    -349.104     -95.548
  H      176.737    -347.892     -95.917
  P      175.169    -350.105     -95.486
  C      175.296    -350.008     -92.908
  O      175.840    -350.564     -94.100
  C      176.244    -350.166     -91.720
  O      177.452    -349.411     -91.941
  C      175.638    -349.631     -90.420
  O      174.794    -350.529     -89.729
  C      176.888    -349.317     -89.603
  O      177.354    -350.486     -88.909
  C      177.899    -348.890     -90.675
  N      179.853    -344.656     -88.585
  C      179.872    -345.949     -88.108
  N      180.434    -346.127     -86.888
  N      179.367    -346.967     -88.755
  C      178.759    -346.626     -89.913
  C      178.661    -345.375     -90.482
  C      179.272    -344.265     -89.783
  O      179.274    -343.093     -90.162
  N      177.968    -345.414     -91.672
  C      177.583    -346.670     -91.777
  N      178.059    -347.450     -90.749
  O      174.501    -351.464     -96.012
  O      174.152    -349.011     -95.373
  H      178.200    -350.266     -88.474
  H      173.566    -351.505     -95.735
  H      180.280    -343.915     -88.057
  H      176.983    -347.072     -92.589
  H      178.888    -349.318     -90.486
  H      176.694    -348.555     -88.842
  H      180.724    -345.362     -86.304
  H      175.104    -348.692     -90.607
  H      180.230    -346.995     -86.393
  H      176.534    -351.221     -91.627
  H      174.360    -350.537     -92.717
  H      175.044    -348.952     -93.063
  P      173.957    -350.029     -88.456
  C      174.508    -349.572     -85.954
  O      174.994    -349.867     -87.246
  O      173.104    -351.324     -88.061
  O      173.086    -348.847     -88.710
  H      172.210    -351.273     -88.444
  H      175.329    -349.499     -85.272
  H      173.848    -350.351     -85.635
  H      173.979    -348.642     -85.976

 6  7  8  9  10  11  12  13  14  15  26  29  33  34 0
 6-311+G(2d,p)
 ****
 36  38  39  40  41 0
 6-311+G(2d,p)
 ****
 1  2  3  4  5  16  17  18  19  20  21  22  23  24  25 0
 3-21G
 ****
 27  28  30  31  32  35  37  42  43  44  45  46  47 0
 3-21G
 ****
 48  49 0
 3-21G
 ****


