%nproc=1
%NoSave
%Mem=1900MB
#P OB98/GEN NMR

erre ene a

0 1
  C     -225.074     -92.056     468.565
  O     -223.877     -92.779     468.397
  H     -224.867     -91.182     469.185
  H     -225.823     -92.668     469.075
  H     -225.459     -91.720     467.596
  P     -223.892     -94.149     467.558
  C     -222.121     -95.726     468.553
  O     -222.378     -94.694     467.605
  C     -220.614     -95.930     468.753
  O     -220.028     -96.404     467.514
  C     -219.871     -94.648     469.155
  O     -218.997     -94.922     470.256
  C     -219.042     -94.309     467.921
  O     -217.893     -93.528     468.219
  C     -218.774     -95.708     467.363
  N     -218.325     -95.670     465.979
  C     -217.146     -96.379     465.694
  O     -216.562     -96.988     466.587
  N     -216.634     -96.327     464.426
  C     -217.222     -95.597     463.523
  N     -216.650     -95.571     462.293
  C     -218.441     -94.815     463.793
  C     -218.939     -94.899     465.024
  O     -224.487     -94.036     466.196
  O     -224.670     -95.195     468.496
  H     -218.118     -92.904     468.942
  H     -225.024     -95.922     467.932
  H     -218.893     -94.214     463.009
  H     -219.841     -94.359     465.313
  H     -218.019     -96.231     467.964
  H     -219.668     -93.744     467.219
  H     -220.540     -93.832     469.434
  H     -220.469     -96.725     469.495
  H     -215.811     -96.114     462.160
  H     -222.593     -96.648     468.192
  H     -217.000     -95.019     461.520
  H     -222.573     -95.429     469.506
  P     -219.169     -96.355     470.960
  C     -218.545     -95.611     473.367
  O     -218.201     -96.399     472.240
  O     -218.482     -97.358     469.922
  O     -220.593     -96.719     471.216
  H     -219.168     -97.915     469.493
  H     -217.810     -95.745     474.133
  H     -219.503     -95.914     473.735
  H     -218.581     -94.580     473.084

 6  7  8  9  10  11  12  13  14  15  16  26  30  31  32  33  35 0
 6-311+G(2d,p)
 ****
 37  38 0
 6-311+G(2d,p)
 ****
 1  2  3  4  5  17  18  19  20  21  22  23  24  25 0
 3-21G
 ****
 27  28  29  34  36  39  40  41  42  43  44  45  46 0
 3-21G
 ****


