%nproc=1
%NoSave
%Mem=1900MB
#P OB98/GEN NMR

erre ene a

0 1
  C      -72.623     -45.514    -126.216
  O      -73.020     -46.420    -127.227
  H      -73.108     -44.550    -126.396
  H      -71.540     -45.372    -126.249
  H      -72.921     -45.875    -125.228
  P      -72.672     -47.975    -127.059
  C      -75.011     -48.866    -127.694
  O      -73.639     -48.776    -128.059
  C      -75.826     -49.525    -128.812
  O      -75.819     -48.637    -129.974
  C      -75.274     -50.890    -129.271
  O      -76.394     -51.688    -129.682
  C      -74.430     -50.476    -130.466
  O      -74.074     -51.576    -131.260
  C      -75.360     -49.429    -131.089
  N      -74.711     -48.602    -132.098
  C      -74.703     -49.073    -133.406
  O      -75.228     -50.132    -133.758
  N      -74.053     -48.288    -134.320
  C      -73.418     -47.107    -134.056
  O      -72.868     -46.432    -134.916
  C      -73.435     -46.675    -132.647
  C      -74.069     -47.428    -131.747
  O      -72.652     -48.486    -125.657
  O      -71.236     -48.119    -127.757
  H      -70.538     -48.096    -127.076
  H      -74.867     -51.958    -131.696
  H      -74.037     -48.615    -135.274
  H      -72.922     -45.754    -132.402
  H      -74.101     -47.142    -130.701
  H      -76.241     -49.907    -131.530
  H      -73.500     -50.013    -130.129
  H      -74.717     -51.412    -128.487
  H      -76.869     -49.610    -128.484
  H      -75.381     -47.851    -127.509
  H      -75.098     -49.452    -126.771
  P      -76.765     -53.100    -129.009
  C      -79.212     -52.504    -128.458
  O      -78.339     -53.371    -129.171
  O      -76.280     -53.238    -127.600
  O      -76.088     -54.210    -129.946
  H      -75.772     -54.950    -129.392
  H      -80.227     -52.786    -128.647
  H      -79.056     -51.496    -128.781
  H      -79.010     -52.578    -127.410

 6  7  8  9  10  11  12  13  14  15  16  27  31  32  33  34  35 0
 6-311+G(2d,p)
 ****
 36  37 0
 6-311+G(2d,p)
 ****
 1  2  3  4  5  17  18  19  20  21  22  23  24  25 0
 3-21G
 ****
 26  28  29  30  38  39  40  41  42  43  44  45 0
 3-21G
 ****


