%nproc=1
%NoSave
%Mem=1900MB
#P OB98/GEN NMR

erre ene a

0 1
  C      -12.282     167.933    -108.658
  O      -12.019     167.769    -110.039
  H      -11.414     168.402    -108.187
  H      -12.452     166.957    -108.185
  H      -13.154     168.576    -108.515
  P      -13.165     167.058    -110.911
  C      -14.285     167.626    -113.179
  O      -13.422     168.065    -112.134
  C      -14.928     168.824    -113.878
  O      -15.762     169.551    -112.955
  C      -13.931     169.834    -114.446
  O      -13.465     169.415    -115.716
  C      -14.808     171.073    -114.549
  O      -15.598     171.002    -115.754
  C      -15.721     170.956    -113.313
  N      -17.191     174.275    -109.677
  C      -17.814     173.842    -110.803
  N      -17.338     173.004    -111.749
  C      -16.097     172.589    -111.451
  C      -15.340     172.953    -110.341
  C      -15.936     173.834    -109.420
  N      -15.303     174.273    -108.276
  N      -14.104     172.334    -110.363
  C      -14.137     171.568    -111.440
  N      -15.304     171.717    -112.151
  O      -14.372     166.616    -110.154
  O      -12.331     165.876    -111.605
  H      -16.099     170.164    -115.720
  H      -11.455     166.198    -111.885
  H      -18.814     174.224    -110.961
  H      -13.356     170.876    -111.738
  H      -16.752     171.267    -113.541
  H      -14.228     171.998    -114.608
  H      -13.112     170.031    -113.743
  H      -15.582     168.436    -114.674
  H      -15.065     166.970    -112.773
  H      -15.727     175.043    -107.787
  H      -14.329     174.043    -108.162
  H      -13.679     167.052    -113.887
  P      -12.699     170.434    -116.695
  C      -10.775     170.207    -118.392
  O      -11.647     169.523    -117.495
  O      -12.132     171.635    -116.017
  O      -13.781     170.798    -117.814
  H      -13.501     171.605    -118.294
  H      -10.124     169.501    -118.864
  H      -10.193     170.921    -117.848
  H      -11.354     170.712    -119.137

 6  7  8  9  10  11  12  13  14  15  25  28  32  33  34  35 0
 6-311+G(2d,p)
 ****
 36  39  40 0
 6-311+G(2d,p)
 ****
 1  2  3  4  5  16  17  18  19  20  21  22  23  24 0
 3-21G
 ****
 26  27  29  30  31  37  38  41  42  43  44  45  46  47 0
 3-21G
 ****
 48 0
 3-21G
 ****


