%nproc=1
%NoSave
%Mem=1900MB
#P OB98/GEN NMR

erre ene a

0 1
  C       81.890      -2.081      98.350
  O       82.471      -2.271      97.071
  P       84.062      -2.395      96.880
  C       85.657      -4.382      97.333
  O       84.491      -3.684      97.735
  C       86.424      -4.887      98.557
  O       87.072      -3.756      99.196
  C       85.549      -5.577      99.612
  O       86.331      -6.627     100.193
  C       85.303      -4.472     100.622
  O       84.946      -4.972     101.903
  C       86.645      -3.733     100.574
  N       86.548      -2.366     101.071
  C       85.847      -2.154     102.259
  O       85.308      -3.089     102.850
  N       85.768      -0.877     102.758
  C       86.270       0.112     102.086
  N       86.219       1.349     102.651
  C       86.925      -0.053     100.775
  C       87.047      -1.306     100.345
  O       84.828      -1.157      97.193
  O       84.241      -2.916      95.382
  H       85.705      -5.472     102.259
  H       84.241      -2.184      94.716
  H       87.303       0.808     100.238
  H       87.534      -1.526      99.405
  H       87.401      -4.282     101.146
  H       84.486      -3.832     100.271
  H       84.632      -6.000      99.190
  H       87.215      -5.565      98.213
  H       85.921       1.395     103.621
  H       86.297      -3.693      96.774
  H       86.854       2.084     102.359
  H       85.382      -5.211      96.671
  P       85.572      -7.943     100.717
  C       83.813      -9.567      99.717
  O       84.401      -8.284      99.679
  O       84.749      -7.363     101.969
  O       86.437      -9.077     101.160
  H       84.577      -8.089     102.598
  H       83.035      -9.618      98.951
  H       83.351      -9.749     100.693
  H       84.560     -10.338      99.510
  H       80.826      -2.025      98.254
  H       82.258      -1.172      98.777
  H       82.148      -2.903      98.985

 3  4  5  6  7  8  9  10  11  12  13  23  27  28  29  30  32 0
 6-311+G(2d,p)
 ****
 34  35 0
 6-311+G(2d,p)
 ****
 1  2  14  15  16  17  18  19  20  21  22  24  25  26 0
 3-21G
 ****
 31  33  36  37  38  39  40  41  42  43  44  45  46 0
 3-21G
 ****


