%nproc=1
%NoSave
%Mem=1900MB
#P OB98/GEN NMR

erre ene a

0 1
  C       32.285    -107.964     -23.428
  O       31.323    -108.865     -22.914
  H       32.461    -107.180     -22.686
  H       31.923    -107.497     -24.349
  H       33.228    -108.483     -23.618
  P       30.829    -110.068     -23.847
  C       28.533    -108.980     -24.342
  O       29.772    -109.437     -24.874
  C       27.417    -109.124     -25.377
  O       27.677    -108.280     -26.515
  C       27.264    -110.536     -25.933
  O       26.633    -111.379     -24.990
  C       26.463    -110.252     -27.195
  O       25.076    -110.039     -26.888
  C       27.122    -108.935     -27.680
  N       28.149    -109.140     -28.697
  C       27.723    -109.052     -30.028
  O       26.541    -108.831     -30.288
  N       28.650    -109.239     -31.025
  C       29.895    -109.446     -30.726
  N       30.764    -109.618     -31.760
  C       30.390    -109.510     -29.337
  C       29.471    -109.362     -28.384
  O       30.345    -111.298     -23.141
  O       32.094    -110.381     -24.776
  H       24.608    -110.031     -27.747
  H       32.634    -111.099     -24.391
  H       31.439    -109.676     -29.134
  H       29.754    -109.397     -27.335
  H       26.364    -108.257     -28.095
  H       26.511    -111.073     -27.910
  H       28.242    -110.936     -26.228
  H       26.482    -108.779     -24.915
  H       30.379    -109.543     -32.696
  H       28.666    -107.924     -24.078
  H       31.766    -109.623     -31.652
  H       28.274    -109.532     -23.431
  P       27.192    -112.848     -24.671
  C       25.475    -113.875     -26.289
  O       26.851    -113.734     -25.966
  O       26.742    -113.433     -23.375
  O       28.781    -112.679     -24.777
  H       29.137    -112.242     -23.966
  H       25.375    -114.482     -27.164
  H       25.051    -112.910     -26.474
  H       24.963    -114.339     -25.472

 6  7  8  9  10  11  12  13  14  15  16  26  30  31  32  33  35 0
 6-311+G(2d,p)
 ****
 37  38 0
 6-311+G(2d,p)
 ****
 1  2  3  4  5  17  18  19  20  21  22  23  24  25 0
 3-21G
 ****
 27  28  29  34  36  39  40  41  42  43  44  45  46 0
 3-21G
 ****


