%nproc=1
%NoSave
%Mem=1900MB
#P OB98/GEN NMR

erre ene a

0 1
  C     -145.812    -238.129     286.964
  O     -145.236    -238.557     288.205
  P     -145.453    -240.098     288.611
  C     -147.475    -239.735     290.203
  O     -147.008    -240.305     288.988
  C     -148.593    -240.587     290.832
  O     -149.599    -240.922     289.839
  C     -148.090    -241.906     291.430
  O     -148.912    -242.203     292.570
  C     -148.404    -242.918     290.335
  O     -148.438    -244.249     290.845
  C     -149.732    -242.361     289.818
  N     -153.523    -243.847     286.728
  C     -153.512    -243.432     288.012
  N     -152.454    -243.069     288.777
  C     -151.315    -243.143     288.057
  C     -151.165    -243.553     286.743
  C     -152.340    -243.924     286.060
  N     -152.343    -244.381     284.763
  N     -149.830    -243.531     286.374
  C     -149.188    -243.113     287.454
  N     -150.046    -242.834     288.483
  O     -144.710    -240.210     290.028
  O     -144.898    -241.070     287.621
  H     -148.622    -244.856     290.095
  H     -143.882    -240.718     289.925
  H     -154.486    -243.382     288.495
  H     -148.120    -243.006     287.542
  H     -150.579    -242.632     290.469
  H     -147.630    -242.866     289.554
  H     -147.037    -241.909     291.718
  H     -149.080    -239.991     291.613
  H     -147.848    -238.726     290.022
  H     -153.222    -244.655     284.356
  H     -151.469    -244.488     284.273
  H     -146.627    -239.620     290.892
  P     -148.302    -241.820     294.005
  C     -147.536    -244.283     294.281
  O     -147.177    -242.915     294.320
  O     -149.486    -242.179     295.026
  O     -147.877    -240.386     294.129
  H     -149.408    -241.646     295.840
  H     -146.716    -244.849     293.813
  H     -148.452    -244.458     293.714
  H     -147.672    -244.648     295.304
  H     -145.598    -237.092     286.811
  H     -146.872    -238.274     286.994
  H     -145.396    -238.701     286.161

 3  4  5  6  7  8  9  10  11  12  22  25  29  30  31  32 0
 6-311+G(2d,p)
 ****
 33  36  37 0
 6-311+G(2d,p)
 ****
 1  2  13  14  15  16  17  18  19  20  21  23  24  26 0
 3-21G
 ****
 27  28  34  35  38  39  40  41  42  43  44  45  46  47  48 0
 3-21G
 ****


