%nproc=1
%NoSave
%Mem=1900MB
#P OB98/GEN NMR

erre ene a

0 1
  C      331.776      26.007     252.082
  O      331.189      27.225     251.617
  P      329.768      27.631     252.267
  C      328.349      28.841     250.442
  O      329.266      28.964     251.527
  C      328.389      30.074     249.543
  O      328.110      31.267     250.304
  C      329.740      30.339     248.890
  O      329.947      29.513     247.754
  C      329.605      31.800     248.494
  O      328.899      31.893     247.244
  C      328.758      32.385     249.637
  N      331.899      36.279     250.417
  C      331.300      35.848     249.250
  N      331.546      36.578     248.140
  N      330.522      34.800     249.180
  C      330.340      34.186     250.381
  C      330.877      34.513     251.598
  C      331.768      35.659     251.657
  O      332.353      36.077     252.657
  N      330.458      33.662     252.591
  C      329.635      32.836     251.966
  N      329.535      33.104     250.624
  O      330.171      28.145     253.726
  O      328.784      26.503     252.323
  H      329.456      31.454     246.567
  H      329.429      28.023     254.347
  H      332.498      37.095     250.412
  H      329.084      32.030     252.444
  H      327.964      33.044     249.268
  H      330.572      32.292     248.347
  H      332.077      37.437     248.136
  H      330.564      30.231     249.628
  H      331.081      36.298     247.283
  H      327.618      29.965     248.768
  H      327.339      28.695     250.816
  H      328.605      27.927     249.866
  P      331.427      29.469     247.126
  C      330.737      28.915     244.684
  O      331.334      28.458     245.890
  O      332.264      28.663     248.229
  O      332.022      30.814     246.841
  H      333.206      28.941     248.220
  H      331.058      29.922     244.443
  H      329.645      28.885     244.794
  H      331.023      28.235     243.864
  H      332.708      25.847     251.582
  H      331.115      25.191     251.876
  H      331.944      26.072     253.137

 3  4  5  6  7  8  9  10  11  12  23  26  30  31  33  0
 6-311+G(2d,p)
 ****
 35  36  37  38 0
 6-311+G(2d,p)
 ****
 1  2  13  14  15  16  17  18  19  20  21  22  24  25  27  28  29 0
 3-21G
 ****
 32  34  39  40  41  42  43  44  45  46  47  48  49 0
 3-21G
 ****


