%nproc=1
%NoSave
%Mem=1900MB
#P OB98/GEN NMR

erre ene a

0 1
  C      -16.135     -18.074      40.159
  O      -15.131     -17.162      40.570
  P      -15.089     -15.671      39.980
  C      -14.139     -16.663      37.807
  O      -15.124     -15.812      38.381
  C      -13.803     -16.216      36.386
  O      -14.972     -16.399      35.551
  C      -13.398     -14.749      36.291
  O      -12.386     -14.612      35.290
  C      -14.651     -14.043      35.800
  O      -14.327     -12.829      35.102
  C      -15.294     -15.135      34.939
  N      -19.690     -17.392      33.543
  C      -18.411     -17.826      33.520
  N      -17.289     -17.165      33.880
  C      -17.594     -15.947      34.358
  C      -18.852     -15.369      34.450
  C      -19.938     -16.147      34.012
  N      -21.243     -15.707      34.049
  N      -18.765     -14.089      34.964
  C      -17.484     -13.910      35.196
  N      -16.736     -15.007      34.858
  O      -13.987     -14.816      40.504
  O      -16.527     -15.064      40.321
  H      -15.157     -12.496      34.704
  H      -16.448     -14.123      40.570
  H      -18.267     -18.841      33.156
  H      -17.046     -13.008      35.596
  H      -14.887     -15.137      33.920
  H      -15.284     -13.781      36.656
  H      -13.039     -14.343      37.242
  H      -13.012     -16.864      35.991
  H      -14.537     -17.681      37.779
  H      -21.964     -16.377      33.831
  H      -21.444     -14.855      34.556
  H      -13.242     -16.659      38.436
  P      -11.077     -13.776      35.721
  C      -11.951     -11.540      34.715
  O      -11.589     -12.267      35.867
  O       -9.927     -14.022      34.800
  O      -10.858     -14.296      37.220
  H      -11.697     -14.621      37.616
  H      -12.234     -10.527      35.014
  H      -12.809     -12.008      34.226
  H      -11.110     -11.482      34.018
  H      -15.995     -19.009      40.660
  H      -16.070     -18.223      39.101
  H      -17.098     -17.679      40.405

 3  4  5  6  7  8  9  10  11  12  22  25  29  30  31  32 0
 6-311+G(2d,p)
 ****
 33  36  37 0
 6-311+G(2d,p)
 ****
 1  2  13  14  15  16  17  18  19  20  21  23  24  26 0
 3-21G
 ****
 27  28  34  35  38  39  40  41  42  43  44  45  46  47  48 0
 3-21G
 ****


