%nproc=1
%NoSave
%Mem=1900MB
#P OB98/GEN NMR

erre ene a

0 1
  C     -182.505     330.168     104.399
  O     -183.878     330.254     104.744
  P     -185.012     330.155     103.618
  C     -185.873     332.576     103.787
  O     -186.156     331.207     104.033
  C     -186.726     333.477     104.685
  O     -188.113     333.083     104.554
  C     -186.356     333.389     106.157
  O     -186.510     334.680     106.754
  C     -187.405     332.462     106.748
  O     -187.592     332.715     108.157
  C     -188.618     332.775     105.870
  N     -192.233     330.010     108.246
  C     -191.540     331.098     108.634
  N     -190.576     331.767     107.964
  C     -190.387     331.230     106.739
  C     -191.028     330.123     106.207
  C     -191.993     329.491     107.017
  N     -192.710     328.389     106.613
  N     -190.553     329.849     104.933
  C     -189.662     330.790     104.704
  N     -189.534     331.660     105.762
  O     -185.506     328.781     103.333
  O     -184.354     330.833     102.322
  H     -186.820     332.336     108.625
  H     -184.620     330.355     101.515
  H     -191.784     331.486     109.621
  H     -189.079     330.887     103.799
  H     -189.172     333.648     106.234
  H     -187.083     331.421     106.639
  H     -185.338     333.020     106.323
  H     -186.641     334.510     104.318
  H     -186.097     332.795     102.734
  H     -193.463     328.081     107.211
  H     -192.655     328.115     105.639
  H     -184.805     332.763     103.952
  P     -185.221     335.243     107.544
  C     -186.396     334.736     109.822
  O     -185.795     335.695     108.982
  O     -184.480     336.273     106.756
  O     -184.408     333.891     107.825
  H     -184.998     333.114     107.831
  H     -186.748     335.238     110.728
  H     -185.656     333.977     110.114
  H     -187.241     334.256     109.320
  H     -181.909     330.255     105.283
  H     -182.257     330.959     103.722
  H     -182.313     329.225     103.931

 3  4  5  6  7  8  9  10  11  12  22  25  29  30  31  32 0
 6-311+G(2d,p)
 ****
 33  36  37 0
 6-311+G(2d,p)
 ****
 1  2  13  14  15  16  17  18  19  20  21  23  24  26 0
 3-21G
 ****
 27  28  34  35  38  39  40  41  42  43  44  45  46  47  48 0
 3-21G
 ****


