%nproc=1
%NoSave
%Mem=1900MB
#P OB98/GEN NMR

erre ene a

0 1
  C     -351.464      68.458     163.033
  O     -352.687      68.647     163.736
  P     -354.046      68.612     162.891
  C     -355.195      67.369     164.853
  O     -355.243      68.474     163.955
  C     -356.192      67.554     165.991
  O     -355.612      68.447     166.984
  C     -357.539      68.150     165.566
  O     -358.601      67.442     166.222
  C     -357.503      69.560     166.142
  O     -358.811      70.073     166.371
  C     -356.678      69.323     167.405
  N     -356.810      72.203     171.552
  C     -357.273      70.913     171.359
  N     -357.910      70.339     172.401
  N     -357.128      70.255     170.238
  C     -356.445      70.944     169.294
  C     -355.927      72.215     169.373
  C     -356.147      72.957     170.596
  O     -355.844      74.130     170.796
  N     -355.280      72.565     168.209
  C     -355.406      71.507     167.430
  N     -356.147      70.516     168.025
  O     -353.991      67.175     162.189
  O     -354.199      69.698     161.878
  H     -358.717      70.868     166.925
  H     -354.071      67.272     161.217
  H     -356.965      72.669     172.428
  H     -355.011      71.424     166.427
  H     -357.277      68.793     168.160
  H     -356.985      70.219     165.436
  H     -358.029      70.778     173.302
  H     -357.711      68.148     164.483
  H     -358.239      69.387     172.285
  H     -356.336      66.585     166.487
  H     -354.180      67.288     165.266
  H     -355.423      66.452     164.294
  P     -359.490      66.476     165.289
  C     -359.374      64.739     167.228
  O     -360.175      65.420     166.279
  O     -358.391      65.610     164.504
  O     -360.407      67.209     164.362
  H     -358.756      65.281     163.664
  H     -358.354      65.146     167.278
  H     -359.315      63.687     166.950
  H     -359.842      64.825     168.212
  H     -350.646      68.506     163.721
  H     -351.355      69.225     162.295
  H     -351.472      67.501     162.555

 3  4  5  6  7  8  9  10  11  12  23  26  30  31  33  0
 6-311+G(2d,p)
 ****
 35  36  37  38 0
 6-311+G(2d,p)
 ****
 1  2  13  14  15  16  17  18  19  20  21  22  24  25  27  28  29 0
 3-21G
 ****
 32  34  39  40  41  42  43  44  45  46  47  48  49 0
 3-21G
 ****


