%nproc=1
%NoSave
%Mem=1900MB
#P OB98/GEN NMR

erre ene a

0 1
  C      670.194    -893.700     399.053
  O      670.149    -894.380     397.799
  P      671.319    -895.390     397.413
  C      671.598    -897.530     396.014
  O      670.731    -896.460     396.376
  C      671.458    -897.840     394.499
  O      670.143    -898.410     394.239
  C      671.582    -896.640     393.605
  O      672.939    -896.270     393.447
  C      670.911    -897.180     392.328
  O      671.833    -897.980     391.578
  C      669.783    -898.040     392.915
  N      664.980    -898.400     391.235
  C      666.080    -899.130     390.982
  N      667.341    -898.950     391.436
  C      667.403    -897.870     392.216
  C      666.370    -896.990     392.546
  C      665.101    -897.330     392.046
  N      663.950    -896.610     392.375
  N      666.842    -895.980     393.372
  C      668.105    -896.230     393.516
  N      668.491    -897.370     392.890
  O      672.094    -895.970     398.564
  O      672.300    -894.490     396.488
  H      671.350    -898.390     390.839
  H      673.180    -894.440     396.886
  H      665.926    -900.000     390.328
  H      668.817    -895.620     394.068
  H      669.684    -899.000     392.346
  H      670.569    -896.370     391.692
  H      670.972    -895.800     393.997
  H      672.197    -898.630     394.256
  H      671.352    -898.420     396.607
  H      663.059    -897.020     392.054
  H      663.973    -895.990     393.175
  H      672.630    -897.230     396.228
  P      673.333    -895.050     392.488
  C      675.374    -893.500     392.480
  O      674.408    -894.160     393.265
  O      672.180    -894.290     391.930
  O      674.195    -895.730     391.337
  H      674.070    -895.260     390.504
  H      676.148    -894.230     392.160
  H      675.826    -892.710     393.080
  H      674.918    -893.060     391.587
  H      669.336    -893.067     399.146
  H      671.083    -893.106     399.105
  H      670.197    -894.417     399.847

 3  4  5  6  7  8  9  10  11  12  22  25  29  30  31  32 0
 6-311+G(2d,p)
 ****
 33  36  37 0
 6-311+G(2d,p)
 ****
 1  2  13  14  15  16  17  18  19  20  21  23  24  26 0
 3-21G
 ****
 27  28  34  35  38  39  40  41  42  43  44  45  46  47  48 0
 3-21G
 ****


