%nproc=1
%NoSave
%Mem=1900MB
#P OB98/GEN NMR

erre ene a

0 1
  C      483.407     463.745    -493.241
  O      483.081     464.069    -491.895
  P      484.305     464.222    -490.865
  C      483.953     461.926    -489.716
  O      483.978     463.332    -489.555
  C      482.713     461.315    -489.040
  O      482.751     461.537    -487.601
  C      481.385     461.879    -489.552
  O      480.415     460.830    -489.503
  C      481.027     462.915    -488.498
  O      479.642     463.252    -488.526
  C      481.523     462.199    -487.237
  N      479.393     464.268    -483.075
  C      478.925     463.384    -483.994
  N      479.540     462.900    -485.082
  C      480.803     463.390    -485.172
  C      481.413     464.300    -484.317
  C      480.654     464.750    -483.226
  N      481.117     465.674    -482.320
  N      482.681     464.603    -484.767
  C      482.840     463.873    -485.864
  N      481.740     463.113    -486.126
  O      484.162     465.731    -490.345
  O      485.645     463.976    -491.481
  H      479.483     463.927    -487.836
  H      484.876     466.277    -490.719
  H      477.915     463.025    -483.824
  H      483.713     463.892    -486.505
  H      480.807     461.432    -486.887
  H      481.607     463.824    -488.669
  H      481.431     462.322    -490.550
  H      482.731     460.225    -489.199
  H      484.852     461.476    -489.284
  H      480.482     465.967    -481.580
  H      482.022     466.074    -482.449
  H      483.974     461.688    -490.779
  P      480.208     459.976    -490.847
  C      477.621     460.092    -490.719
  O      478.781     459.271    -490.726
  O      481.255     458.773    -490.684
  O      480.446     460.758    -492.098
  H      481.512     458.432    -491.560
  H      476.848     459.591    -491.321
  H      477.811     461.086    -491.134
  H      477.258     460.188    -489.694
  H      482.509     463.673    -493.818
  H      483.924     462.809    -493.267
  H      484.034     464.510    -493.650

 3  4  5  6  7  8  9  10  11  12  22  25  29  30  31  32 0
 6-311+G(2d,p)
 ****
 33  36  37 0
 6-311+G(2d,p)
 ****
 1  2  13  14  15  16  17  18  19  20  21  23  24  26 0
 3-21G
 ****
 27  28  34  35  38  39  40  41  42  43  44  45  46  47  48 0
 3-21G
 ****


