%nproc=1
%NoSave
%Mem=1900MB
#P OB98/GEN NMR

erre ene a

0 1
  C      112.690    -381.400     416.068
  O      112.465    -380.124     416.641
  H      113.454    -381.916     416.653
  H      113.048    -381.289     415.040
  H      111.768    -381.995     416.084
  P      111.240    -379.271     416.036
  C      112.368    -378.732     413.727
  O      111.357    -379.422     414.444
  C      111.743    -377.804     412.680
  O      112.797    -377.010     412.079
  C      111.015    -378.539     411.568
  O      109.862    -377.776     411.197
  C      112.018    -378.536     410.417
  O      111.377    -378.676     409.147
  C      112.739    -377.202     410.650
  N      114.084    -377.194     410.058
  C      114.155    -376.996     408.673
  O      113.127    -376.863     408.009
  N      115.387    -376.995     408.069
  C      116.450    -377.245     408.767
  N      117.643    -377.257     408.109
  C      116.413    -377.517     410.222
  C      115.210    -377.466     410.795
  O      111.724    -377.771     416.317
  O      109.909    -379.613     416.620
  H      112.076    -378.831     408.474
  H      112.672    -377.626     416.145
  H      117.325    -377.746     410.761
  H      115.093    -377.645     411.858
  H      112.168    -376.374     410.220
  H      112.711    -379.377     410.534
  H      110.713    -379.551     411.826
  H      111.079    -377.097     413.197
  H      117.621    -377.088     407.109
  H      113.035    -379.442     413.229
  H      118.519    -377.491     408.543
  H      112.955    -378.152     414.447
  P      108.401    -378.358     411.535
  C      108.339    -380.141     409.668
  O      108.326    -379.893     411.067
  O      107.250    -377.508     411.101
  O      108.430    -378.489     413.136
  H      107.554    -378.231     413.477
  H      108.285    -381.195     409.492
  H      109.243    -379.755     409.246
  H      107.499    -379.660     409.213

 6  7  8  9  10  11  12  13  14  15  16  26  30  31  32  33  35 0
 6-311+G(2d,p)
 ****
 37  38 0
 6-311+G(2d,p)
 ****
 1  2  3  4  5  17  18  19  20  21  22  23  24  25 0
 3-21G
 ****
 27  28  29  34  36  39  40  41  42  43  44  45  46 0
 3-21G
 ****


