%nproc=1
%NoSave
%Mem=1900MB
#P OB98/GEN NMR

erre ene a

0 1
  C      272.549     172.499     174.685
  O      273.375     172.176     173.578
  P      274.313     170.878     173.713
  C      276.225     172.458     174.509
  O      275.492     171.261     174.730
  C      277.065     172.800     175.737
  O      276.207     173.105     176.857
  C      277.969     171.670     176.217
  O      279.109     171.538     175.382
  C      278.271     172.139     177.637
  O      279.282     173.160     177.614
  C      276.922     172.736     178.067
  N      275.403     171.386     182.770
  C      276.253     172.349     182.336
  N      276.621     172.631     181.072
  C      276.010     171.807     180.202
  C      275.140     170.771     180.497
  C      274.831     170.573     181.853
  N      273.969     169.591     182.289
  N      274.736     170.129     179.346
  C      275.345     170.774     178.370
  N      276.114     171.803     178.835
  O      275.052     170.816     172.298
  O      273.586     169.607     174.026
  H      280.107     172.744     177.296
  H      275.211     169.889     172.027
  H      276.690     172.971     183.111
  H      275.253     170.536     177.320
  H      277.037     173.645     178.669
  H      278.630     171.334     178.286
  H      277.419     170.722     176.244
  H      277.659     173.692     175.506
  H      275.528     173.283     174.319
  H      273.920     169.421     183.285
  H      273.656     168.896     181.619
  H      276.856     172.329     173.626
  P      279.663     170.053     175.129
  C      281.720     170.362     176.638
  O      280.473     169.712     176.474
  O      280.839     170.325     174.075
  O      278.636     169.058     174.715
  H      281.423     171.049     174.358
  H      282.136     170.081     177.609
  H      281.593     171.447     176.603
  H      282.416     170.042     175.855
  H      271.982     173.378     174.462
  H      273.159     172.677     175.546
  H      271.883     171.685     174.882

 3  4  5  6  7  8  9  10  11  12  22  25  29  30  31  32 0
 6-311+G(2d,p)
 ****
 33  36  37 0
 6-311+G(2d,p)
 ****
 1  2  13  14  15  16  17  18  19  20  21  23  24  26 0
 3-21G
 ****
 27  28  34  35  38  39  40  41  42  43  44  45  46  47  48 0
 3-21G
 ****


