%nproc=1
%NoSave
%Mem=1900MB
#P OB98/GEN NMR

erre ene a

0 1
  C       35.142      27.245     -35.574
  O       34.590      28.382     -36.238
  P       34.508      29.768     -35.438
  C       36.327      30.915     -36.865
  O       34.975      30.952     -36.419
  C       36.389      30.952     -38.402
  O       36.060      29.633     -38.916
  C       35.397      31.914     -39.065
  O       35.806      33.261     -39.285
  C       35.242      31.277     -40.445
  O       36.324      31.696     -41.299
  C       35.358      29.781     -40.169
  N       32.547      25.934     -42.028
  C       33.806      26.340     -42.292
  N       34.482      27.377     -41.753
  C       33.729      28.014     -40.842
  C       32.430      27.712     -40.466
  C       31.828      26.615     -41.104
  N       30.541      26.207     -40.845
  N       31.983      28.596     -39.506
  C       32.988      29.429     -39.322
  N       34.071      29.112     -40.095
  O       35.125      29.777     -34.082
  O       32.925      30.017     -35.344
  H       36.078      31.437     -42.206
  H       32.719      30.415     -34.476
  H       34.342      25.759     -43.037
  H       32.977      30.269     -38.644
  H       35.945      29.259     -40.934
  H       34.317      31.580     -40.943
  H       34.433      31.903     -38.543
  H       37.411      31.194     -38.715
  H       36.809      30.006     -36.501
  H       30.168      25.438     -41.378
  H       29.971      26.738     -40.202
  H       36.848      31.755     -36.406
  P       34.774      34.479     -39.156
  C       34.809      35.011     -36.594
  O       35.266      35.329     -37.890
  O       33.337      34.088     -39.118
  O       35.177      35.408     -40.393
  H       36.047      35.832     -40.310
  H       35.416      35.553     -35.865
  H       34.901      33.939     -36.402
  H       33.766      35.320     -36.484
  H       35.127      26.404     -36.235
  H       34.561      27.024     -34.703
  H       36.151      27.455     -35.286

 3  4  5  6  7  8  9  10  11  12  22  25  29  30  31  32 0
 6-311+G(2d,p)
 ****
 33  36  37 0
 6-311+G(2d,p)
 ****
 1  2  13  14  15  16  17  18  19  20  21  23  24  26 0
 3-21G
 ****
 27  28  34  35  38  39  40  41  42  43  44  45  46  47  48 0
 3-21G
 ****


