%nproc=1
%NoSave
%Mem=1900MB
#P OB98/GEN NMR

erre ene a

0 1
  C      217.738    -247.434      78.023
  O      217.248    -248.178      79.132
  P      216.204    -249.362      78.849
  C      217.633    -251.512      79.089
  O      217.034    -250.575      78.204
  C      217.739    -252.892      78.437
  O      218.457    -253.783      79.333
  C      216.392    -253.556      78.121
  O      216.570    -254.338      76.936
  C      216.184    -254.485      79.303
  O      215.262    -255.531      79.011
  C      217.620    -254.941      79.549
  N      219.166    -258.947      82.323
  C      219.125    -258.741      80.989
  N      218.700    -257.646      80.324
  C      218.283    -256.700      81.183
  C      218.234    -256.784      82.568
  C      218.706    -257.974      83.145
  N      218.758    -258.184      84.502
  N      217.719    -255.621      83.104
  C      217.463    -254.851      82.066
  N      217.810    -255.453      80.889
  O      215.355    -248.791      77.616
  O      215.322    -249.722      79.995
  H      215.591    -256.020      78.232
  H      214.441    -248.596      77.902
  H      219.488    -259.562      80.375
  H      217.029    -253.863      82.112
  H      217.934    -255.720      78.842
  H      215.794    -253.919      80.158
  H      215.566    -252.850      77.992
  H      218.343    -252.799      77.525
  H      217.008    -251.597      79.983
  H      219.234    -259.005      84.842
  H      218.599    -257.400      85.124
  H      218.621    -251.156      79.384
  P      215.284    -254.542      76.000
  C      215.162    -252.060      75.254
  O      214.534    -253.130      75.934
  O      214.316    -255.450      76.895
  O      215.585    -255.183      74.686
  H      213.737    -255.986      76.322
  H      214.393    -251.435      74.793
  H      215.847    -252.416      74.475
  H      215.724    -251.458      75.974
  H      218.420    -246.685      78.369
  H      216.919    -246.965      77.518
  H      218.244    -248.092      77.347

 3  4  5  6  7  8  9  10  11  12  22  25  29  30  31  32 0
 6-311+G(2d,p)
 ****
 33  36  37 0
 6-311+G(2d,p)
 ****
 1  2  13  14  15  16  17  18  19  20  21  23  24  26 0
 3-21G
 ****
 27  28  34  35  38  39  40  41  42  43  44  45  46  47  48 0
 3-21G
 ****


