%nproc=1
%NoSave
%Mem=1900MB
#P OB98/GEN NMR

erre ene a

0 1
  C       55.059      24.347     196.622
  O       55.225      25.771     196.567
  P       54.294      26.771     197.406
  C       54.509      29.094     198.502
  O       55.045      28.183     197.545
  C       55.603      29.680     199.402
  O       55.942      28.759     200.458
  C       56.911      29.997     198.683
  O       56.805      31.215     197.969
  C       57.894      30.018     199.851
  O       57.835      31.283     200.534
  C       57.347      28.900     200.747
  N       61.902      26.574     200.743
  C       61.538      27.847     201.008
  N       60.303      28.394     200.984
  C       59.383      27.465     200.666
  C       59.604      26.129     200.363
  C       60.938      25.684     200.409
  N       61.307      24.391     200.124
  N       58.419      25.494     200.059
  C       57.495      26.427     200.192
  N       58.027      27.631     200.557
  O       53.801      26.212     198.702
  O       53.067      27.101     196.429
  H       56.919      31.404     200.843
  H       52.274      27.313     196.959
  H       62.348      28.522     201.277
  H       56.435      26.276     200.039
  H       57.425      29.158     201.808
  H       58.928      29.866     199.534
  H       57.173      29.179     198.003
  H       55.198      30.583     199.874
  H       53.776      28.560     199.116
  H       62.288      24.157     200.145
  H       60.600      23.732     199.829
  H       53.997      29.901     197.964
  P       56.605      31.198     196.379
  C       55.035      32.324     194.691
  O       55.481      32.289     196.033
  O       56.394      29.852     195.771
  O       57.940      31.884     195.822
  H       58.143      31.524     194.940
  H       55.758      32.875     194.081
  H       54.072      32.840     194.654
  H       54.912      31.313     194.290
  H       55.783      23.879     195.988
  H       54.075      24.090     196.290
  H       55.196      24.011     197.628

 3  4  5  6  7  8  9  10  11  12  22  25  29  30  31  32 0
 6-311+G(2d,p)
 ****
 33  36  37 0
 6-311+G(2d,p)
 ****
 1  2  13  14  15  16  17  18  19  20  21  23  24  26 0
 3-21G
 ****
 27  28  34  35  38  39  40  41  42  43  44  45  46  47  48 0
 3-21G
 ****


