%nproc=1
%NoSave
%Mem=1900MB
#P OB98/GEN NMR

erre ene a

0 1
  C     -374.219    -811.399     479.092
  O     -373.556    -810.259     479.659
  P     -372.242    -809.750     478.892
  C     -370.458    -808.963     480.605
  O     -371.556    -808.607     479.790
  C     -369.905    -807.737     481.339
  O     -369.278    -806.792     480.427
  C     -370.949    -806.954     482.099
  O     -371.237    -807.589     483.333
  C     -370.271    -805.592     482.272
  O     -369.387    -805.596     483.408
  C     -369.473    -805.458     480.976
  N     -369.152    -801.044     478.471
  C     -368.416    -801.510     479.554
  N     -367.458    -800.702     480.019
  N     -368.617    -802.665     480.118
  C     -369.628    -803.388     479.554
  C     -370.407    -803.050     478.473
  C     -370.172    -801.750     477.852
  O     -370.777    -801.297     476.883
  N     -371.280    -804.047     478.150
  C     -371.116    -804.934     479.114
  N     -370.080    -804.613     479.957
  O     -372.840    -808.959     477.636
  O     -371.340    -810.858     478.469
  H     -368.860    -804.779     483.393
  H     -372.658    -809.456     476.810
  H     -368.964    -800.130     478.090
  H     -371.702    -805.839     479.220
  H     -368.480    -805.042     481.157
  H     -371.004    -804.799     482.437
  H     -367.231    -799.783     479.627
  H     -371.864    -806.853     481.493
  H     -366.892    -801.031     480.804
  H     -369.113    -808.091     482.026
  H     -369.660    -809.417     479.996
  H     -370.776    -809.734     481.325
  P     -372.776    -807.894     483.690
  C     -373.061    -807.009     486.120
  O     -372.864    -808.135     485.279
  O     -373.032    -809.341     483.069
  O     -373.737    -806.892     483.133
  H     -373.868    -809.361     482.587
  H     -373.592    -807.325     487.007
  H     -373.628    -806.215     485.623
  H     -372.078    -806.604     486.430
  H     -375.075    -811.645     479.685
  H     -373.546    -812.231     479.075
  H     -374.530    -811.171     478.094

 3  4  5  6  7  8  9  10  11  12  23  26  30  31 0
 6-311+G(2d,p)
 ****
 33  35  36  37  38 0
 6-311+G(2d,p)
 ****
 1  2  13  14  15  16  17  18  19  20  21  22  24  25 0
 3-21G
 ****
 27  28  29  32  34  39  40  41  42  43  44  45  46  47  48  49 0
 3-21G
 ****


