%nproc=1
%NoSave
%Mem=1900MB
#P OB98/GEN NMR

erre ene a

0 1
  C      389.512    -633.699     574.604
  O      389.055    -632.407     574.240
  H      389.102    -633.951     575.588
  H      390.600    -633.706     574.667
  H      389.169    -634.445     573.878
  P      389.473    -631.877     572.785
  C      391.709    -630.836     573.594
  O      390.428    -630.606     573.021
  C      392.731    -629.832     573.053
  O      392.963    -630.111     571.643
  C      392.296    -628.363     573.167
  O      393.464    -627.580     573.429
  C      391.814    -628.044     571.757
  O      391.820    -626.646     571.483
  C      392.814    -628.861     570.936
  N      392.221    -626.577     566.495
  C      392.754    -626.109     567.677
  N      393.203    -624.833     567.685
  N      392.853    -626.824     568.771
  C      392.391    -628.098     568.607
  C      391.837    -628.673     567.494
  C      391.726    -627.861     566.302
  O      391.239    -628.211     565.233
  N      391.470    -629.980     567.745
  C      391.806    -630.179     569.012
  N      392.366    -629.067     569.574
  O      388.108    -631.235     572.246
  O      390.005    -632.916     571.854
  H      391.021    -626.258     571.905
  H      387.607    -631.887     571.722
  H      392.164    -625.978     565.686
  H      391.660    -631.104     569.554
  H      393.801    -628.381     570.883
  H      390.791    -628.418     571.615
  H      393.211    -624.234     566.870
  H      391.539    -628.177     573.932
  H      393.645    -624.485     568.534
  H      393.690    -630.006     573.570
  H      392.029    -631.856     573.337
  H      391.635    -630.750     574.680
  P      393.886    -627.350     574.959
  C      393.570    -624.792     574.594
  O      394.375    -625.830     575.128
  O      395.258    -628.188     575.082
  O      392.873    -627.821     575.958
  H      395.384    -628.492     575.990
  H      394.032    -623.847     574.789
  H      392.604    -624.818     575.053
  H      393.467    -624.928     573.538

 6  7  8  9  10  11  12  13  14  15  26  29  33  34 0
 6-311+G(2d,p)
 ****
 36  38  39  40  41 0
 6-311+G(2d,p)
 ****
 1  2  3  4  5  16  17  18  19  20  21  22  23  24  25 0
 3-21G
 ****
 27  28  30  31  32  35  37  42  43  44  45  46  47 0
 3-21G
 ****
 48  49 0
 3-21G
 ****


