%nproc=1
%NoSave
%Mem=1900MB
#P OB98/GEN NMR

erre ene a

0 1
  C      109.127    -895.760     -82.653
  O      108.288    -896.500     -83.516
  H      109.938    -895.310     -83.243
  H      109.574    -896.410     -81.891
  H      108.561    -894.960     -82.166
  P      107.094    -897.320     -82.834
  C      105.957    -897.510     -85.165
  O      106.405    -898.190     -83.995
  C      104.877    -898.350     -85.849
  O      103.875    -898.750     -84.871
  C      104.102    -897.600     -86.928
  O      104.816    -897.510     -88.152
  C      102.857    -898.450     -87.043
  O      103.058    -899.580     -87.924
  C      102.641    -898.920     -85.591
  N      101.541    -898.190     -84.951
  C      100.273    -898.390     -85.504
  O      100.070    -899.130     -86.472
  N       99.248    -897.680     -84.946
  C       99.376    -896.770     -83.927
  O       98.433    -896.120     -83.512
  C      100.737    -896.590     -83.387
  C      101.734    -897.290     -83.926
  O      106.017    -896.200     -82.496
  O      107.485    -898.110     -81.620
  H      106.003    -896.030     -81.536
  H      103.485    -899.200     -88.711
  H       98.327    -897.820     -85.333
  H      100.870    -895.870     -82.591
  H      102.758    -897.160     -83.554
  H      102.393    -900.000     -85.562
  H      102.018    -897.870     -87.444
  H      103.821    -896.590     -86.569
  H      105.342    -899.250     -86.267
  H      106.809    -897.390     -85.857
  H      105.588    -896.530     -84.890
  P      104.477    -896.290     -89.141
  C      106.763    -896.920     -90.296
  O      105.411    -896.490     -90.431
  O      105.136    -895.070     -88.339
  O      103.018    -896.140     -89.407
  H      105.887    -895.370     -87.783
  H      107.213    -896.992     -91.264
  H      106.787    -897.878     -89.820
  H      107.305    -896.213     -89.703

 6  7  8  9  10  11  12  13  14  15  16  27  31  32  33  34  35 0
 6-311+G(2d,p)
 ****
 36  37 0
 6-311+G(2d,p)
 ****
 1  2  3  4  5  17  18  19  20  21  22  23  24  25 0
 3-21G
 ****
 26  28  29  30  38  39  40  41  42  43  44  45 0
 3-21G
 ****


