%nproc=1
%NoSave
%Mem=1900MB
#P OB98/GEN NMR

erre ene a

0 1
  C     -302.323    -761.435    -328.257
  O     -302.199    -762.620    -327.468
  P     -303.362    -763.124    -326.494
  C     -302.075    -762.332    -324.410
  O     -303.302    -762.280    -325.127
  C     -302.022    -761.286    -323.297
  O     -302.999    -761.576    -322.273
  C     -300.676    -761.175    -322.585
  O     -299.754    -760.437    -323.363
  C     -301.091    -760.518    -321.271
  O     -301.230    -759.093    -321.442
  C     -302.456    -761.159    -321.005
  N     -301.927    -762.549    -316.108
  C     -301.994    -761.344    -316.699
  N     -302.128    -761.049    -318.016
  C     -302.224    -762.175    -318.736
  C     -302.172    -763.489    -318.272
  C     -302.014    -763.654    -316.886
  N     -301.920    -764.887    -316.285
  N     -302.280    -764.378    -319.318
  C     -302.415    -763.627    -320.394
  N     -302.389    -762.289    -320.089
  O     -303.402    -764.613    -326.294
  O     -304.724    -762.618    -327.186
  H     -300.338    -758.717    -321.510
  H     -305.458    -763.210    -326.945
  H     -301.927    -760.483    -316.033
  H     -302.539    -764.003    -321.400
  H     -303.172    -760.443    -320.579
  H     -300.362    -760.681    -320.474
  H     -300.287    -762.177    -322.375
  H     -302.302    -760.310    -323.737
  H     -301.254    -762.156    -325.120
  H     -301.780    -764.927    -315.290
  H     -301.937    -765.721    -316.867
  H     -301.959    -763.331    -323.983
  P     -298.556    -761.183    -324.115
  C     -296.800    -760.341    -322.454
  O     -297.423    -761.477    -323.030
  O     -298.082    -760.537    -325.376
  O     -299.153    -762.645    -324.402
  H     -298.743    -763.011    -325.211
  H     -296.045    -759.953    -323.144
  H     -296.317    -760.637    -321.517
  H     -297.539    -759.557    -322.229
  H     -301.430    -761.292    -328.829
  H     -302.474    -760.593    -327.614
  H     -303.158    -761.533    -328.918

 3  4  5  6  7  8  9  10  11  12  22  25  29  30  31  32 0
 6-311+G(2d,p)
 ****
 33  36  37 0
 6-311+G(2d,p)
 ****
 1  2  13  14  15  16  17  18  19  20  21  23  24  26 0
 3-21G
 ****
 27  28  34  35  38  39  40  41  42  43  44  45  46  47  48 0
 3-21G
 ****


