%nproc=1
%NoSave
%Mem=1900MB
#P OB98/GEN NMR

erre ene a

0 1
  C     -526.880     239.689     275.012
  O     -527.084     240.410     276.212
  H     -526.745     240.403     274.194
  H     -527.750     239.067     274.792
  H     -525.983     239.065     275.081
  P     -527.159     239.602     277.594
  C     -529.549     240.424     278.135
  O     -528.707     239.303     277.877
  C     -530.719     240.008     279.016
  O     -531.196     238.702     278.627
  C     -530.368     239.889     280.496
  O     -530.269     241.162     281.103
  C     -531.511     239.026     281.004
  O     -532.689     239.824     281.231
  C     -531.720     238.059     279.814
  N     -531.089     236.752     280.030
  C     -531.384     236.116     281.238
  O     -532.091     236.611     282.103
  N     -530.789     234.898     281.422
  C     -529.867     234.309     280.591
  O     -529.304     233.258     280.845
  C     -529.585     235.035     279.346
  C     -530.201     236.206     279.121
  O     -526.413     240.207     278.738
  O     -526.580     238.156     277.218
  H     -533.302     239.264     281.741
  H     -525.675     238.069     277.568
  H     -530.976     234.426     282.289
  H     -528.876     234.603     278.654
  H     -529.997     236.762     278.215
  H     -532.790     237.900     279.637
  H     -531.270     238.529     281.943
  H     -529.429     239.330     280.614
  H     -531.535     240.723     278.872
  H     -529.930     240.803     277.177
  H     -528.953     241.209     278.618
  P     -529.143     241.437     282.206
  C     -530.746     240.423     283.950
  O     -529.415     240.439     283.433
  O     -528.956     242.870     282.591
  O     -527.808     240.841     281.552
  H     -527.156     241.562     281.454
  H     -530.806     239.725     284.759
  H     -531.426     240.132     283.177
  H     -531.004     241.400     284.302

 6  7  8  9  10  11  12  13  14  15  16  26  31  32  33  34  35 0
 6-311+G(2d,p)
 ****
 36  37 0
 6-311+G(2d,p)
 ****
 1  2  3  4  5  17  18  19  20  21  22  23  24  25 0
 3-21G
 ****
 27  28  29  30  38  39  40  41  42  43  44  45 0
 3-21G
 ****


