%nproc=1
%NoSave
%Mem=1900MB
#P OB98/GEN NMR

erre ene a

0 1
  C      -19.797     132.383      55.683
  O      -19.391     133.112      54.538
  H      -20.261     131.448      55.359
  H      -20.531     132.963      56.250
  H      -18.935     132.151      56.316
  P      -18.481     134.404      54.802
  C      -20.558     135.962      54.422
  O      -19.465     135.596      55.253
  C      -21.622     136.686      55.243
  O      -22.146     135.826      56.275
  C      -21.106     137.894      56.009
  O      -20.830     138.994      55.170
  C      -22.265     138.137      56.967
  O      -23.301     138.919      56.359
  C      -22.761     136.698      57.254
  N      -22.474     136.290      58.617
  C      -23.298     136.858      59.599
  O      -24.204     137.629      59.276
  N      -23.046     136.569      60.916
  C      -22.047     135.802      61.228
  N      -21.834     135.579      62.555
  C      -21.154     135.185      60.226
  C      -21.421     135.469      58.950
  O      -18.048     134.829      53.322
  O      -17.338     134.184      55.736
  H      -22.851     139.637      55.868
  H      -18.788     134.876      52.694
  H      -20.342     134.543      60.538
  H      -20.815     135.059      58.149
  H      -23.847     136.628      57.096
  H      -21.941     138.677      57.862
  H      -20.224     137.616      56.603
  H      -22.445     136.963      54.568
  H      -22.435     136.066      63.209
  H      -20.988     135.077      53.939
  H      -21.043     135.068      62.918
  H      -20.174     136.617      53.633
  P      -19.592     139.970      55.455
  C      -21.146     141.707      56.557
  O      -20.001     140.877      56.721
  O      -19.105     140.746      54.277
  O      -18.495     138.990      56.090
  H      -18.772     138.540      56.908
  H      -21.319     142.259      57.457
  H      -22.000     141.099      56.342
  H      -20.980     142.388      55.748

 6  7  8  9  10  11  12  13  14  15  16  26  30  31  32  33  35 0
 6-311+G(2d,p)
 ****
 37  38 0
 6-311+G(2d,p)
 ****
 1  2  3  4  5  17  18  19  20  21  22  23  24  25 0
 3-21G
 ****
 27  28  29  34  36  39  40  41  42  43  44  45  46 0
 3-21G
 ****


