%nproc=1
%NoSave
%Mem=1900MB
#P OB98/GEN NMR

erre ene a

0 1
  C     -390.868      63.941     -72.619
  O     -391.565      64.734     -73.586
  P     -393.044      64.262     -73.992
  C     -394.203      66.593     -73.845
  O     -393.806      65.501     -74.668
  C     -394.602      67.799     -74.712
  O     -393.459      68.336     -75.407
  C     -395.602      67.442     -75.793
  O     -396.911      67.333     -75.251
  C     -395.441      68.608     -76.773
  O     -396.323      69.694     -76.455
  C     -393.967      69.023     -76.573
  N     -393.137      68.761     -77.742
  C     -392.893      69.852     -78.579
  O     -393.383      70.958     -78.317
  N     -392.123      69.663     -79.702
  C     -391.664      68.478     -79.977
  N     -390.909      68.351     -81.104
  C     -391.922      67.291     -79.131
  C     -392.664      67.494     -78.044
  O     -393.782      64.102     -72.575
  O     -393.083      62.995     -74.782
  H     -396.102      70.414     -77.083
  H     -394.440      63.385     -72.620
  H     -391.524      66.322     -79.409
  H     -392.906      66.680     -77.368
  H     -393.896      70.100     -76.349
  H     -395.669      68.300     -77.804
  H     -395.311      66.503     -76.289
  H     -395.015      68.580     -74.053
  H     -390.753      69.182     -81.658
  H     -393.391      66.877     -73.175
  H     -390.510      67.477     -81.414
  H     -395.034      66.278     -73.207
  P     -397.585      65.874     -75.226
  C     -398.285      66.391     -72.798
  O     -398.713      65.964     -74.076
  O     -396.447      64.997     -74.500
  O     -398.000      65.283     -76.527
  H     -396.695      64.056     -74.506
  H     -399.159      66.601     -72.185
  H     -397.672      67.295     -72.873
  H     -397.705      65.591     -72.319
  H     -389.901      64.364     -72.441
  H     -390.758      62.943     -72.989
  H     -391.424      63.924     -71.705

 3  4  5  6  7  8  9  10  11  12  13  21  23  27  28  29  30  32 0
 6-311+G(2d,p)
 ****
 34  35 0
 6-311+G(2d,p)
 ****
 1  2  14  15  16  17  18  19  20  22  24  25  26 0
 3-21G
 ****
 31  33  36  37  38  39  40  41  42  43  44  45  46 0
 3-21G
 ****


