%nproc=1
%NoSave
%Mem=1900MB
#P OB98/GEN NMR

erre ene a

0 1
  C     -624.756    -399.414     376.661
  O     -625.369    -398.236     376.127
  P     -626.756    -397.790     376.822
  C     -629.241    -398.570     376.747
  O     -627.926    -398.717     376.214
  C     -630.136    -399.761     376.393
  O     -630.385    -399.762     374.961
  C     -629.567    -401.143     376.748
  O     -630.635    -401.984     377.196
  C     -629.083    -401.671     375.425
  O     -628.981    -403.096     375.412
  C     -630.141    -401.097     374.483
  N     -628.924    -403.907     370.444
  C     -629.423    -404.289     371.674
  N     -629.603    -405.618     371.857
  N     -629.721    -403.453     372.633
  C     -629.522    -402.163     372.293
  C     -629.044    -401.642     371.114
  C     -628.679    -402.584     370.074
  O     -628.169    -402.298     368.980
  N     -628.980    -400.265     371.149
  C     -629.419    -399.954     372.358
  N     -629.752    -401.066     373.093
  O     -627.036    -396.344     376.182
  O     -626.696    -397.734     378.311
  H     -628.789    -403.362     374.494
  H     -627.136    -395.692     376.886
  H     -628.688    -404.585     369.745
  H     -629.483    -398.954     372.758
  H     -631.082    -401.657     374.563
  H     -628.079    -401.262     375.194
  H     -629.455    -406.310     371.132
  H     -628.774    -401.122     377.513
  H     -630.010    -405.931     372.740
  H     -631.109    -399.611     376.889
  H     -629.688    -397.649     376.367
  H     -629.169    -398.462     377.835
  P     -630.867    -402.066     378.785
  C     -630.054    -403.691     380.651
  O     -630.026    -403.339     379.277
  O     -632.387    -402.556     378.907
  O     -630.624    -400.789     379.511
  H     -632.781    -402.256     379.749
  H     -630.824    -403.152     381.200
  H     -629.071    -403.474     381.088
  H     -630.235    -404.760     380.736
  H     -623.849    -399.616     376.130
  H     -625.424    -400.243     376.555
  H     -624.536    -399.263     377.697

 3  4  5  6  7  8  9  10  11  12  23  26  30  31  33  0
 6-311+G(2d,p)
 ****
 35  36  37  38 0
 6-311+G(2d,p)
 ****
 1  2  13  14  15  16  17  18  19  20  21  22  24  25  27  28  29 0
 3-21G
 ****
 32  34  39  40  41  42  43  44  45  46  47  48  49 0
 3-21G
 ****


