%nproc=1
%NoSave
%Mem=1900MB
#P OB98/GEN NMR

erre ene a

0 1
  C     -891.040      28.700     544.790
  O     -892.470      28.852     544.656
  P     -893.260      30.086     545.321
  C     -894.110      31.129     543.126
  O     -894.470      30.508     544.351
  C     -895.250      31.005     542.083
  O     -895.360      29.663     541.595
  C     -896.620      31.393     542.616
  O     -896.760      32.799     542.655
  C     -897.530      30.673     541.597
  O     -897.650      31.466     540.399
  C     -896.750      29.387     541.321
  N     -899.560      25.120     541.220
  C     -899.270      26.021     540.273
  N     -898.520      27.140     540.359
  C     -898.030      27.262     541.622
  C     -898.240      26.434     542.722
  C     -899.060      25.313     542.478
  N     -899.380      24.393     543.450
  N     -897.620      26.906     543.826
  C     -896.990      27.996     543.428
  N     -897.200      28.252     542.100
  O     -892.380      31.234     545.732
  O     -893.990      29.458     546.604
  H     -898.000      32.340     540.666
  H     -894.120      30.146     547.281
  H     -899.690      25.820     539.288
  H     -896.370      28.636     544.049
  H     -896.810      29.102     540.259
  H     -898.540      30.523     541.974
  H     -896.770      30.945     543.607
  H     -894.970      31.646     541.218
  H     -893.210      30.632     542.731
  H     -900.000      23.630     543.221
  H     -899.050      24.542     544.394
  H     -893.880      32.173     543.301
  P     -897.660      33.471     543.823
  C     -895.990      35.008     545.003
  O     -897.050      34.933     544.084
  O     -897.870      32.638     545.046
  O     -899.060      33.784     543.090
  H     -899.770      33.759     543.730
  H     -896.360      34.960     546.022
  H     -895.460      35.953     544.840
  H     -895.280      34.183     544.829
  H     -890.725      27.817     544.274
  H     -890.786      28.617     545.826
  H     -890.550      29.553     544.370

 3  4  5  6  7  8  9  10  11  12  22  25  29  30  31  32 0
 6-311+G(2d,p)
 ****
 33  36  37 0
 6-311+G(2d,p)
 ****
 1  2  13  14  15  16  17  18  19  20  21  23  24  26 0
 3-21G
 ****
 27  28  34  35  38  39  40  41  42  43  44  45  46  47  48 0
 3-21G
 ****


