%nproc=1
%NoSave
%Mem=1900MB
#P OB98/GEN NMR

erre ene a

0 1
  C      712.626      59.026      47.041
  O      711.368      58.374      47.242
  P      710.166      58.824      46.263
  C      708.361      59.087      48.126
  O      708.788      58.384      46.962
  C      706.938      58.692      48.511
  O      705.982      59.236      47.581
  C      706.675      57.193      48.506
  O      707.171      56.567      49.682
  C      705.160      57.149      48.454
  O      704.626      57.312      49.780
  C      704.816      58.370      47.581
  N      701.112      57.384      44.273
  C      701.035      57.694      45.617
  N      699.793      57.785      46.146
  N      702.082      57.901      46.371
  C      703.259      57.806      45.697
  C      703.463      57.506      44.376
  C      702.294      57.244      43.553
  O      702.299      56.935      42.363
  N      704.797      57.510      44.051
  C      705.395      57.848      45.175
  N      704.510      58.031      46.207
  O      710.299      57.805      45.036
  O      710.243      60.251      45.817
  H      704.846      56.489      50.273
  H      709.937      58.208      44.223
  H      700.272      57.224      43.737
  H      706.467      57.977      45.294
  H      703.985      58.949      47.992
  H      704.773      56.197      48.073
  H      698.947      57.706      45.605
  H      707.094      56.725      47.593
  H      699.723      58.049      47.119
  H      706.723      59.103      49.512
  H      708.400      60.165      47.946
  H      709.064      58.881      48.950
  P      708.373      55.516      49.514
  C      707.739      53.566      51.099
  O      708.481      54.764      50.921
  O      709.670      56.458      49.482
  O      708.280      54.647      48.300
  H      710.385      56.039      48.956
  H      707.795      52.927      50.223
  H      706.690      53.823      51.313
  H      708.147      53.021      51.970
  H      713.340      58.648      47.743
  H      712.508      60.080      47.184
  H      712.970      58.837      46.046

 3  4  5  6  7  8  9  10  11  12  23  26  30  31  33  0
 6-311+G(2d,p)
 ****
 35  36  37  38 0
 6-311+G(2d,p)
 ****
 1  2  13  14  15  16  17  18  19  20  21  22  24  25  27  28  29 0
 3-21G
 ****
 32  34  39  40  41  42  43  44  45  46  47  48  49 0
 3-21G
 ****


