%nproc=1
%NoSave
%Mem=1900MB
#P OB98/GEN NMR

erre ene a

0 1
  C     -211.392    -157.872      54.360
  O     -211.197    -156.787      53.478
  H     -210.727    -157.752      55.220
  H     -211.150    -158.812      53.859
  H     -212.426    -157.893      54.712
  P     -212.080    -156.775      52.139
  C     -213.945    -155.302      53.178
  O     -212.940    -155.415      52.182
  C     -214.482    -153.871      53.235
  O     -213.409    -152.982      53.654
  C     -215.014    -153.355      51.890
  O     -216.166    -152.541      52.131
  C     -213.883    -152.471      51.390
  O     -214.335    -151.497      50.456
  C     -213.372    -151.895      52.707
  N     -209.893    -149.126      55.063
  C     -211.141    -149.545      55.483
  N     -211.528    -149.165      56.719
  N     -211.944    -150.270      54.750
  C     -211.420    -150.600      53.545
  C     -210.206    -150.242      53.009
  C     -209.335    -149.418      53.822
  O     -208.229    -148.998      53.496
  N     -210.058    -150.747      51.740
  C     -211.178    -151.409      51.514
  N     -212.033    -151.351      52.580
  O     -213.177    -157.910      52.404
  O     -211.329    -157.003      50.870
  H     -215.092    -151.021      50.860
  H     -213.456    -158.329      51.567
  H     -209.319    -148.559      55.663
  H     -211.419    -151.940      50.601
  H     -214.011    -151.087      53.086
  H     -213.114    -153.083      50.905
  H     -210.952    -148.633      57.353
  H     -215.266    -154.149      51.184
  H     -212.435    -149.473      57.054
  H     -215.255    -153.817      54.010
  H     -213.517    -155.568      54.151
  H     -214.761    -155.993      52.946
  P     -217.447    -152.769      51.190
  C     -219.295    -154.172      52.354
  O     -218.752    -152.882      52.116
  O     -217.238    -154.267      50.658
  O     -217.543    -151.802      50.057
  H     -216.987    -154.249      49.717
  H     -220.156    -154.086      52.984
  H     -218.561    -154.785      52.835
  H     -219.577    -154.617      51.423

 6  7  8  9  10  11  12  13  14  15  26  29  33  34 0
 6-311+G(2d,p)
 ****
 36  38  39  40  41 0
 6-311+G(2d,p)
 ****
 1  2  3  4  5  16  17  18  19  20  21  22  23  24  25 0
 3-21G
 ****
 27  28  30  31  32  35  37  42  43  44  45  46  47 0
 3-21G
 ****
 48  49 0
 3-21G
 ****


