%nproc=1
%NoSave
%Mem=1900MB
#P OB98/GEN NMR

erre ene a

0 1
  C      168.661     518.579     179.533
  O      168.421     519.979     179.310
  P      168.847     520.723     177.960
  C      169.732     523.083     178.500
  O      168.601     522.295     178.136
  C      169.348     524.540     178.784
  O      169.053     525.242     177.571
  C      168.100     524.702     179.658
  O      168.421     524.491     181.020
  C      167.684     526.129     179.317
  O      168.462     527.083     180.056
  C      168.033     526.204     177.816
  N      164.062     528.377     175.387
  C      165.055     528.896     176.152
  N      166.072     528.252     176.766
  C      166.015     526.935     176.520
  C      165.062     526.250     175.778
  C      164.047     527.033     175.185
  N      163.029     526.490     174.426
  N      165.321     524.888     175.756
  C      166.424     524.763     176.467
  N      166.880     525.956     176.961
  O      168.252     520.140     176.721
  O      170.458     520.607     177.922
  H      168.223     527.978     179.733
  H      170.761     520.610     177.006
  H      165.029     529.971     176.274
  H      166.918     523.818     176.669
  H      168.431     527.196     177.544
  H      166.630     526.332     179.540
  H      167.322     524.013     179.336
  H      170.212     525.037     179.261
  H      170.458     523.045     177.683
  H      162.321     527.112     174.077
  H      162.978     525.483     174.320
  H      170.192     522.642     179.395
  P      167.406     523.678     181.959
  C      168.568     524.885     183.928
  O      168.057     523.643     183.430
  O      166.960     522.358     181.442
  O      166.171     524.688     182.152
  H      165.350     524.163     182.275
  H      169.557     525.060     183.493
  H      168.666     524.805     185.013
  H      167.897     525.707     183.682
  H      168.294     518.304     180.499
  H      169.712     518.385     179.482
  H      168.156     518.007     178.783

 3  4  5  6  7  8  9  10  11  12  22  25  29  30  31  32 0
 6-311+G(2d,p)
 ****
 33  36  37 0
 6-311+G(2d,p)
 ****
 1  2  13  14  15  16  17  18  19  20  21  23  24  26 0
 3-21G
 ****
 27  28  34  35  38  39  40  41  42  43  44  45  46  47  48 0
 3-21G
 ****


