%nproc=1
%NoSave
%Mem=1900MB
#P OB98/GEN NMR

erre ene a

0 1
  C     -133.569     138.075    -161.108
  O     -133.777     136.965    -161.990
  P     -135.263     136.697    -162.526
  C     -135.823     134.283    -163.322
  O     -135.208     135.527    -163.622
  C     -135.238     133.170    -164.196
  O     -135.418     133.443    -165.600
  C     -133.742     132.970    -164.013
  O     -133.457     132.173    -162.873
  C     -133.386     132.218    -165.284
  O     -133.733     130.826    -165.142
  C     -134.296     132.886    -166.321
  N     -131.457     133.984    -170.440
  C     -131.913     132.812    -169.946
  N     -132.647     132.598    -168.835
  C     -132.922     133.758    -168.217
  C     -132.525     135.028    -168.601
  C     -131.757     135.122    -169.773
  N     -131.297     136.319    -170.273
  N     -132.987     135.976    -167.712
  C     -133.664     135.289    -166.814
  N     -133.646     133.945    -167.071
  O     -135.572     138.002    -163.400
  O     -136.273     136.511    -161.444
  H     -133.434     130.374    -165.953
  H     -136.517     138.231    -163.329
  H     -131.652     131.927    -170.520
  H     -134.184     135.719    -165.968
  H     -134.693     132.169    -167.050
  H     -132.317     132.257    -165.512
  H     -133.217     133.934    -163.985
  H     -135.766     132.237    -163.955
  H     -136.904     134.352    -163.475
  H     -130.775     136.310    -171.133
  H     -131.537     137.173    -169.790
  H     -135.678     134.062    -162.259
  P     -132.721     132.889    -161.641
  C     -131.660     130.771    -160.576
  O     -132.639     131.786    -160.484
  O     -133.822     133.925    -161.117
  O     -131.440     133.565    -161.997
  H     -133.387     134.708    -160.726
  H     -131.542     130.307    -159.594
  H     -130.696     131.179    -160.889
  H     -131.985     130.008    -161.289
  H     -132.535     138.126    -160.837
  H     -134.163     137.947    -160.227
  H     -133.854     138.981    -161.601

 3  4  5  6  7  8  9  10  11  12  22  25  29  30  31  32 0
 6-311+G(2d,p)
 ****
 33  36  37 0
 6-311+G(2d,p)
 ****
 1  2  13  14  15  16  17  18  19  20  21  23  24  26 0
 3-21G
 ****
 27  28  34  35  38  39  40  41  42  43  44  45  46  47  48 0
 3-21G
 ****


