%nproc=1
%NoSave
%Mem=1900MB
#P OB98/GEN NMR

erre ene a

0 1
  C       -8.612    -897.510     164.620
  O       -9.270    -898.220     165.652
  P      -10.779    -898.700     165.356
  C      -12.829    -897.630     164.129
  O      -11.509    -897.460     164.624
  C      -13.643    -896.370     164.405
  O      -12.845    -895.180     164.174
  C      -14.887    -896.210     163.548
  O      -15.950    -896.980     164.074
  C      -15.125    -894.710     163.610
  O      -15.814    -894.350     164.831
  C      -13.690    -894.160     163.590
  N      -14.609    -891.360     159.479
  C      -15.410    -891.600     160.581
  N      -16.605    -890.970     160.608
  N      -15.064    -892.390     161.558
  C      -13.841    -892.960     161.391
  C      -12.968    -892.810     160.342
  C      -13.332    -891.890     159.281
  O      -12.629    -891.570     158.336
  N      -11.834    -893.570     160.514
  C      -12.014    -894.150     161.682
  N      -13.208    -893.800     162.265
  O      -11.446    -898.730     166.815
  O      -10.901    -900.000     164.627
  H      -15.217    -894.460     165.575
  H      -11.450    -899.640     167.158
  H      -14.923    -890.730     158.747
  H      -11.315    -894.810     162.143
  H      -13.591    -893.260     164.222
  H      -15.764    -894.350     162.785
  H      -16.943    -890.380     159.870
  H      -14.673    -896.510     162.502
  H      -17.210    -891.150     161.405
  H      -13.906    -896.360     165.473
  H      -13.299    -898.470     164.634
  H      -12.780    -897.830     163.052
  P      -17.298    -897.090     163.193
  C      -18.527    -895.350     161.697
  O      -17.769    -895.580     162.874
  O      -18.393    -897.610     164.257
  O      -17.211    -898.010     162.014
  H      -19.003    -898.220     163.809
  H      -19.182    -894.490     161.869
  H      -19.124    -896.230     161.422
  H      -17.827    -895.120     160.875
  H       -7.624    -897.250     164.939
  H       -9.160    -896.619     164.395
  H       -8.554    -898.124     163.746

 3  4  5  6  7  8  9  10  11  12  23  26  30  31 0
 6-311+G(2d,p)
 ****
 33  35  36  37  38 0
 6-311+G(2d,p)
 ****
 1  2  13  14  15  16  17  18  19  20  21  22  24  25 0
 3-21G
 ****
 27  28  29  32  34  39  40  41  42  43  44  45  46  47  48  49 0
 3-21G
 ****


