%nproc=1
%NoSave
%Mem=1900MB
#P OB98/GEN NMR

erre ene a

0 1
  C     -187.991     160.577     132.380
  O     -188.182     161.208     131.125
  P     -188.103     162.804     130.991
  C     -185.999     162.589     129.529
  O     -186.565     163.162     130.703
  C     -185.107     163.600     128.813
  O     -185.921     164.715     128.378
  C     -183.996     164.160     129.694
  O     -182.829     164.366     128.893
  C     -184.514     165.517     130.137
  O     -183.434     166.411     130.451
  C     -185.363     165.924     128.928
  N     -186.984     170.793     129.028
  C     -185.843     170.237     128.565
  N     -185.467     168.939     128.594
  C     -186.438     168.180     129.124
  C     -187.657     168.605     129.633
  C     -187.918     169.985     129.575
  N     -189.088     170.549     130.036
  N     -188.381     167.535     130.123
  C     -187.623     166.486     129.894
  N     -186.445     166.821     129.282
  O     -188.716     163.562     132.116
  O     -188.817     163.125     129.598
  H     -183.831     167.212     130.851
  H     -189.342     163.946     129.667
  H     -185.134     170.926     128.114
  H     -187.874     165.470     130.158
  H     -184.754     166.402     128.151
  H     -185.127     165.400     131.038
  H     -183.757     163.510     130.543
  H     -184.691     163.127     127.916
  H     -186.815     162.294     128.862
  H     -189.238     171.525     129.841
  H     -189.850     169.931     130.282
  H     -185.430     161.693     129.799
  P     -181.523     163.526     129.323
  C     -181.733     161.364     127.888
  O     -181.945     161.993     129.131
  O     -181.014     163.931     130.667
  O     -180.534     163.846     128.105
  H     -181.029     164.087     127.292
  H     -182.118     160.343     127.942
  H     -180.664     161.320     127.664
  H     -182.259     161.899     127.092
  H     -188.081     159.517     132.264
  H     -188.731     160.925     133.070
  H     -187.016     160.813     132.753

 3  4  5  6  7  8  9  10  11  12  22  25  29  30  31  32 0
 6-311+G(2d,p)
 ****
 33  36  37 0
 6-311+G(2d,p)
 ****
 1  2  13  14  15  16  17  18  19  20  21  23  24  26 0
 3-21G
 ****
 27  28  34  35  38  39  40  41  42  43  44  45  46  47  48 0
 3-21G
 ****


