%nproc=1
%NoSave
%Mem=1900MB
#P OB98/GEN NMR

erre ene a

0 1
  C       -5.524     -18.246       6.579
  O       -4.247     -17.875       6.101
  H       -6.191     -17.380       6.586
  H       -5.943     -19.006       5.913
  H       -5.445     -18.663       7.587
  P       -3.471     -16.736       6.923
  C       -4.510     -15.185       5.111
  O       -4.158     -15.354       6.476
  C       -5.010     -13.761       4.893
  O       -6.263     -13.563       5.588
  C       -4.066     -12.690       5.427
  O       -3.010     -12.397       4.529
  C       -5.019     -11.514       5.560
  O       -5.271     -10.943       4.264
  C       -6.285     -12.201       6.096
  N       -8.135      -9.878      10.266
  C       -8.293      -9.626       8.948
  N       -7.784     -10.305       7.900
  C       -7.052     -11.348       8.319
  C       -6.807     -11.733       9.627
  C       -7.383     -10.941      10.634
  N       -7.198     -11.175      11.978
  N       -5.988     -12.846       9.661
  C       -5.762     -13.135       8.395
  N       -6.356     -12.239       7.547
  O       -2.036     -16.667       6.218
  O       -3.389     -16.937       8.399
  H       -5.718     -10.088       4.411
  H       -1.407     -16.169       6.774
  H       -8.906      -8.764       8.705
  H       -5.169     -13.970       8.044
  H       -7.206     -11.726       5.738
  H       -4.620     -10.716       6.191
  H       -3.682     -12.951       6.420
  H       -5.198     -13.621       3.822
  H       -5.302     -15.896       4.855
  H       -7.527     -10.469      12.618
  H       -6.524     -11.871      12.262
  H       -3.635     -15.377       4.483
  P       -1.565     -12.091       5.160
  C       -2.194      -9.610       5.608
  O       -1.760     -10.849       6.157
  O       -0.766     -11.454       3.929
  O       -0.871     -13.283       5.731
  H        0.183     -11.675       3.979
  H       -2.277      -8.883       6.389
  H       -3.147      -9.742       5.140
  H       -1.484      -9.273       4.882

 6  7  8  9  10  11  12  13  14  15  25  28  32  33  34  35 0
 6-311+G(2d,p)
 ****
 36  39  40 0
 6-311+G(2d,p)
 ****
 1  2  3  4  5  16  17  18  19  20  21  22  23  24 0
 3-21G
 ****
 26  27  29  30  31  37  38  41  42  43  44  45  46  47 0
 3-21G
 ****
 48 0
 3-21G
 ****


