%nproc=1
%NoSave
%Mem=1900MB
#P OB98/GEN NMR

erre ene a

0 1
  C       37.576    -229.808    -500.613
  O       37.285    -228.738    -499.738
  H       37.992    -229.416    -501.544
  H       38.319    -230.457    -500.142
  H       36.676    -230.394    -500.823
  P       36.010    -227.829    -500.087
  C       34.733    -228.679    -497.992
  O       34.744    -228.548    -499.407
  C       33.563    -229.555    -497.546
  O       33.817    -230.923    -497.981
  C       33.335    -229.582    -496.027
  O       31.926    -229.598    -495.780
  C       33.926    -230.916    -495.609
  O       33.354    -231.420    -494.408
  C       33.627    -231.772    -496.836
  N       34.272    -236.489    -495.051
  C       33.198    -235.670    -495.066
  N       33.099    -234.442    -495.612
  C       34.234    -234.110    -496.251
  C       35.405    -234.841    -496.327
  C       35.405    -236.083    -495.673
  N       36.513    -236.896    -495.591
  N       36.370    -234.136    -497.021
  C       35.797    -232.988    -497.331
  N       34.507    -232.924    -496.886
  O       35.807    -228.109    -501.651
  O       36.156    -226.374    -499.794
  H       33.775    -232.275    -494.190
  H       36.351    -227.486    -502.167
  H       32.312    -236.043    -494.564
  H       36.277    -232.167    -497.845
  H       32.591    -232.143    -496.851
  H       35.007    -230.809    -495.458
  H       33.794    -228.738    -495.496
  H       32.658    -229.219    -498.066
  H       34.622    -227.687    -497.544
  H       36.451    -237.720    -495.009
  H       37.393    -236.560    -495.954
  H       35.681    -229.112    -497.663
  P       31.119    -228.238    -496.037
  C       29.716    -228.791    -498.163
  O       30.834    -228.102    -497.607
  O       32.209    -227.102    -495.758
  O       29.917    -228.073    -495.162
  H       31.785    -226.308    -495.383
  H       29.665    -228.598    -499.214
  H       28.817    -228.449    -497.694
  H       29.827    -229.842    -497.998

 6  7  8  9  10  11  12  13  14  15  25  28  32  33  34  35 0
 6-311+G(2d,p)
 ****
 36  39  40 0
 6-311+G(2d,p)
 ****
 1  2  3  4  5  16  17  18  19  20  21  22  23  24 0
 3-21G
 ****
 26  27  29  30  31  37  38  41  42  43  44  45  46  47 0
 3-21G
 ****
 48 0
 3-21G
 ****


