%nproc=1
%NoSave
%Mem=1900MB
#P OB98/GEN NMR

erre ene a

0 1
  C      -61.057      -8.947      -1.872
  O      -61.157      -9.663      -0.648
  P      -60.370      -9.075       0.624
  C      -57.927      -8.306       1.056
  O      -58.860      -8.851       0.130
  C      -56.534      -8.879       0.813
  O      -56.038      -8.457      -0.472
  C      -55.485      -8.439       1.823
  O      -55.534      -9.202       3.017
  C      -54.206      -8.735       1.057
  O      -53.910     -10.143       1.127
  C      -54.593      -8.348      -0.374
  N      -50.805      -5.502      -2.293
  C      -50.879      -6.815      -1.992
  N      -51.921      -7.498      -1.473
  C      -52.954      -6.673      -1.228
  C      -53.010      -5.306      -1.448
  C      -51.872      -4.714      -2.019
  N      -51.809      -3.380      -2.354
  N      -54.236      -4.805      -1.071
  C      -54.912      -5.846      -0.640
  N      -54.185      -7.001      -0.725
  O      -60.256     -10.343       1.594
  O      -61.024      -7.913       1.288
  H      -53.385     -10.281       1.940
  H      -60.136     -10.047       2.517
  H      -49.986      -7.398      -2.204
  H      -55.928      -5.816      -0.270
  H      -54.166      -9.027      -1.121
  H      -53.337      -8.206       1.458
  H      -55.551      -7.362       2.022
  H      -56.619      -9.974       0.800
  H      -58.245      -8.556       2.073
  H      -51.035      -3.071      -2.923
  H      -52.669      -2.843      -2.335
  H      -57.914      -7.216       0.951
  P      -55.097      -8.456       4.371
  C      -52.818      -7.623       5.300
  O      -53.536      -8.146       4.198
  O      -55.143      -9.627       5.461
  O      -55.968      -7.302       4.739
  H      -55.294      -9.258       6.351
  H      -51.749      -7.763       5.122
  H      -53.087      -8.136       6.227
  H      -53.021      -6.552       5.400
  H      -61.626      -9.449      -2.626
  H      -60.031      -8.897      -2.173
  H      -61.438      -7.956      -1.738

 3  4  5  6  7  8  9  10  11  12  22  25  29  30  31  32 0
 6-311+G(2d,p)
 ****
 33  36  37 0
 6-311+G(2d,p)
 ****
 1  2  13  14  15  16  17  18  19  20  21  23  24  26 0
 3-21G
 ****
 27  28  34  35  38  39  40  41  42  43  44  45  46  47  48 0
 3-21G
 ****


