%nproc=1
%NoSave
%Mem=1900MB
#P OB98/GEN NMR

erre ene a

0 1
  C      -40.164     188.805    -274.886
  O      -41.545     188.434    -274.935
  P      -41.929     186.975    -274.379
  C      -43.597     187.789    -272.571
  O      -43.413     187.044    -273.768
  C      -44.800     187.272    -271.773
  O      -46.050     187.742    -272.361
  C      -44.887     185.747    -271.702
  O      -45.450     185.398    -270.431
  C      -45.893     185.408    -272.787
  O      -46.449     184.110    -272.603
  C      -46.863     186.577    -272.631
  N      -51.636     186.610    -274.443
  C      -51.138     186.369    -273.213
  N      -49.846     186.362    -272.817
  C      -49.035     186.677    -273.840
  C      -49.398     186.934    -275.154
  C      -50.772     186.890    -275.452
  N      -51.276     187.106    -276.707
  N      -48.275     187.171    -275.929
  C      -47.260     187.050    -275.096
  N      -47.671     186.784    -273.819
  O      -40.992     186.819    -273.091
  O      -41.694     185.877    -275.363
  H      -45.710     183.469    -272.531
  H      -40.281     186.181    -273.272
  H      -51.877     186.151    -272.444
  H      -46.219     187.140    -275.363
  H      -47.554     186.437    -271.792
  H      -45.399     185.435    -273.770
  H      -43.930     185.229    -271.841
  H      -44.741     187.684    -270.756
  H      -43.750     188.847    -272.808
  H      -52.274     187.028    -276.844
  H      -50.640     187.271    -277.476
  H      -42.678     187.747    -271.978
  P      -44.455     184.720    -269.371
  C      -45.612     185.899    -267.372
  O      -45.248     184.676    -267.980
  O      -43.332     185.838    -269.135
  O      -43.870     183.421    -269.829
  H      -42.499     185.420    -268.850
  H      -46.619     185.800    -266.952
  H      -45.603     186.736    -268.081
  H      -44.912     186.116    -266.562
  H      -40.045     189.792    -275.283
  H      -39.589     188.115    -275.467
  H      -39.825     188.786    -273.871

 3  4  5  6  7  8  9  10  11  12  22  25  29  30  31  32 0
 6-311+G(2d,p)
 ****
 33  36  37 0
 6-311+G(2d,p)
 ****
 1  2  13  14  15  16  17  18  19  20  21  23  24  26 0
 3-21G
 ****
 27  28  34  35  38  39  40  41  42  43  44  45  46  47  48 0
 3-21G
 ****


