%nproc=1
%NoSave
%Mem=1900MB
#P OB98/GEN NMR

erre ene a

0 1
  C     1023.330     199.139     577.280
  O     1022.670     198.836     576.068
  H     1023.818     198.244     577.682
  H     1024.088     199.898     577.081
  H     1022.624     199.534     578.015
  P     1021.578     197.655     576.125
  C     1023.425     195.898     576.564
  O     1022.350     196.308     575.740
  C     1023.580     194.373     576.524
  O     1022.431     193.742     577.109
  C     1023.701     193.796     575.117
  O     1025.018     193.968     574.580
  C     1023.383     192.341     575.390
  O     1024.564     191.673     575.899
  C     1022.310     192.424     576.477
  N     1017.338     192.415     577.747
  C     1018.462     192.612     578.488
  N     1019.738     192.586     578.081
  C     1019.828     192.351     576.767
  C     1018.784     192.132     575.889
  C     1017.476     192.165     576.426
  N     1016.332     191.939     575.685
  N     1019.241     191.935     574.605
  C     1020.550     192.025     574.702
  N     1020.958     192.272     575.983
  O     1020.660     197.942     574.850
  O     1020.774     197.601     577.379
  H     1025.210     191.651     575.171
  H     1019.729     197.711     575.067
  H     1018.295     192.809     579.538
  H     1021.241     191.935     573.866
  H     1022.483     191.688     577.279
  H     1023.078     191.785     574.498
  H     1022.934     194.226     574.433
  H     1024.458     194.112     577.137
  H     1023.232     196.206     577.603
  H     1015.439     192.173     576.080
  H     1016.450     191.772     574.687
  H     1024.347     196.388     576.226
  P     1025.166     194.816     573.226
  C     1023.899     193.083     571.758
  O     1025.139     193.738     572.031
  O     1026.689     195.292     573.277
  O     1024.228     195.968     573.082
  H     1026.801     196.118     572.731
  H     1024.028     192.399     570.945
  H     1023.161     193.812     571.497
  H     1023.579     192.548     572.628

 6  7  8  9  10  11  12  13  14  15  25  28  32  33  34  35 0
 6-311+G(2d,p)
 ****
 36  39  40 0
 6-311+G(2d,p)
 ****
 1  2  3  4  5  16  17  18  19  20  21  22  23  24 0
 3-21G
 ****
 26  27  29  30  31  37  38  41  42  43  44  45  46  47  48 0
 3-21G
 ****


