%nproc=1
%NoSave
%Mem=1900MB
#P OB98/GEN NMR

erre ene a

0 1
  C      216.258       3.843      29.995
  O      216.648       2.514      30.368
  P      217.337       2.159      31.776
  C      219.280       3.151      33.174
  O      218.268       3.398      32.204
  C      220.610       3.783      32.752
  O      221.079       3.184      31.518
  C      220.553       5.274      32.440
  O      220.438       6.063      33.613
  C      221.862       5.470      31.675
  O      222.968       5.666      32.570
  C      222.016       4.127      30.935
  N      221.810       4.243      29.498
  C      222.942       4.540      28.726
  O      224.023       4.770      29.269
  N      222.804       4.584      27.361
  C      221.635       4.452      26.819
  N      221.567       4.486      25.459
  C      220.398       4.276      27.607
  C      220.559       4.179      28.927
  O      218.045       0.841      31.789
  O      216.147       2.186      32.849
  H      216.370       1.603      33.599
  H      223.755       5.825      32.013
  H      219.434       4.212      27.118
  H      219.703       4.033      29.580
  H      223.008       3.701      31.125
  H      221.824       6.342      31.013
  H      219.706       5.471      31.770
  H      221.351       3.584      33.539
  H      222.436       4.599      24.948
  H      219.417       2.068      33.267
  H      220.709       4.371      24.943
  H      218.952       3.543      34.145
  P      219.120       6.974      33.748
  C      218.167       9.078      32.559
  O      219.161       8.069      32.576
  O      219.391       7.828      35.082
  O      217.844       6.204      33.845
  H      218.557       7.917      35.585
  H      218.577       9.964      32.064
  H      217.848       9.351      33.570
  H      217.304       8.721      31.989
  H      215.824       3.826      29.017
  H      217.118       4.480      29.992
  H      215.541       4.215      30.697

 3  4  5  6  7  8  9  10  11  12  13  24  27  28  29  30  32 0
 6-311+G(2d,p)
 ****
 34  35 0
 6-311+G(2d,p)
 ****
 1  2  14  15  16  17  18  19  20  21  22  23  25  26 0
 3-21G
 ****
 31  33  36  37  38  39  40  41  42  43  44  45  46 0
 3-21G
 ****


