%nproc=1
%NoSave
%Mem=1900MB
#P OB98/GEN NMR

erre ene a

0 1
  C     -178.759      23.876    -132.948
  O     -177.870      24.912    -132.585
  H     -178.228      23.168    -133.587
  H     -179.613      24.275    -133.501
  H     -179.108      23.346    -132.057
  P     -178.441      26.145    -131.737
  C     -177.163      25.872    -129.506
  O     -178.391      25.705    -130.196
  C     -177.393      25.954    -127.992
  O     -178.012      24.717    -127.541
  C     -176.102      26.142    -127.176
  O     -176.447      26.875    -125.994
  C     -175.754      24.707    -126.835
  O     -174.788      24.639    -125.815
  C     -177.150      24.148    -126.533
  N     -177.182      22.694    -126.537
  C     -176.875      22.067    -125.328
  O     -176.582      22.734    -124.337
  N     -176.875      20.695    -125.280
  C     -177.094      20.014    -126.360
  N     -177.066      18.657    -126.247
  C     -177.367      20.639    -127.670
  C     -177.401      21.971    -127.685
  O     -179.754      26.694    -132.190
  O     -177.284      27.249    -131.834
  H     -175.131      25.030    -124.980
  H     -177.553      27.953    -132.454
  H     -177.526      20.026    -128.545
  H     -177.590      22.522    -128.601
  H     -177.507      24.503    -125.556
  H     -175.328      24.197    -127.704
  H     -175.319      26.665    -127.732
  H     -178.111      26.759    -127.789
  H     -176.865      18.272    -125.330
  H     -176.707      26.799    -129.866
  H     -177.202      18.026    -127.021
  H     -176.487      25.039    -129.729
  P     -176.414      28.477    -125.923
  C     -178.954      28.860    -125.683
  O     -177.794      29.061    -126.487
  O     -175.198      29.088    -126.539
  O     -176.478      28.824    -124.358
  H     -175.993      29.655    -124.195
  H     -179.803      29.294    -126.168
  H     -178.812      29.324    -124.729
  H     -179.117      27.811    -125.548

 6  7  8  9  10  11  12  13  14  15  16  26  30  31  32  33  35 0
 6-311+G(2d,p)
 ****
 37  38 0
 6-311+G(2d,p)
 ****
 1  2  3  4  5  17  18  19  20  21  22  23  24  25 0
 3-21G
 ****
 27  28  29  34  36  39  40  41  42  43  44  45  46 0
 3-21G
 ****


