%nproc=1
%NoSave
%Mem=1900MB
#P OB98/GEN NMR

erre ene a

0 1
  C      137.234     132.350     126.467
  O      137.287     130.996     126.014
  P      138.336     130.552     124.884
  C      136.727     130.869     122.918
  O      137.958     131.283     123.503
  C      136.551     131.342     121.469
  O      135.431     130.675     120.838
  C      136.329     132.849     121.307
  O      136.949     133.205     120.067
  C      134.818     132.942     121.203
  O      134.382     134.166     120.629
  C      134.504     131.680     120.390
  N      133.117     131.249     120.547
  C      132.225     131.606     119.536
  O      132.602     132.304     118.594
  N      130.915     131.206     119.638
  C      130.514     130.590     120.706
  N      129.200     130.242     120.762
  C      131.404     130.270     121.840
  C      132.681     130.615     121.687
  O      138.545     129.078     124.769
  O      139.697     131.279     125.321
  H      134.653     134.177     119.686
  H      140.457     130.741     125.029
  H      131.020     129.779     122.721
  H      133.414     130.418     122.460
  H      134.692     131.852     119.322
  H      134.375     132.868     122.203
  H      136.734     133.440     122.131
  H      137.450     131.038     120.918
  H      128.617     130.505     119.976
  H      135.906     131.263     123.525
  H      128.762     129.866     121.589
  H      136.663     129.777     122.962
  P      138.398     133.878     120.005
  C      137.589     136.176     120.784
  O      138.407     135.061     121.083
  O      138.844     134.281     118.638
  O      139.388     132.790     120.642
  H      140.305     133.000     120.389
  H      137.510     136.807     121.673
  H      136.586     135.855     120.487
  H      138.040     136.757     119.975
  H      136.476     132.446     127.216
  H      137.004     132.993     125.643
  H      138.182     132.625     126.881

 3  4  5  6  7  8  9  10  11  12  13  23  27  28  29  30  32 0
 6-311+G(2d,p)
 ****
 34  35 0
 6-311+G(2d,p)
 ****
 1  2  14  15  16  17  18  19  20  21  22  24  25  26 0
 3-21G
 ****
 31  33  36  37  38  39  40  41  42  43  44  45  46 0
 3-21G
 ****


