%nproc=1
%NoSave
%Mem=1900MB
#P OB98/GEN NMR

erre ene a

0 1
  C     -125.194     -31.900       9.911
  O     -123.921     -32.497       9.758
  H     -125.320     -31.139       9.137
  H     -125.269     -31.421      10.892
  H     -125.980     -32.651       9.801
  P     -123.532     -33.632      10.824
  C     -121.762     -34.876       9.393
  O     -122.009     -34.034      10.510
  C     -120.344     -35.435       9.451
  O     -119.373     -34.391       9.218
  C     -119.977     -36.082      10.782
  O     -120.448     -37.416      10.850
  C     -118.457     -35.995      10.744
  O     -117.888     -37.054       9.948
  C     -118.229     -34.630      10.080
  N     -114.881     -31.755      12.532
  C     -114.685     -32.748      11.594
  N     -113.401     -33.056      11.307
  N     -115.656     -33.388      11.000
  C     -116.885     -32.996      11.412
  C     -117.209     -32.015      12.320
  C     -116.123     -31.292      12.947
  O     -116.231     -30.358      13.736
  N     -118.567     -31.896      12.459
  C     -119.062     -32.829      11.667
  N     -118.079     -33.534      11.023
  O     -124.358     -34.912      10.327
  O     -123.832     -33.303      12.247
  H     -117.991     -37.899      10.418
  H     -124.588     -35.462      11.099
  H     -114.092     -31.286      12.941
  H     -120.114     -33.030      11.529
  H     -117.336     -34.624       9.445
  H     -118.023     -36.087      11.741
  H     -112.650     -32.849      11.950
  H     -120.354     -35.485      11.621
  H     -113.248     -33.799      10.637
  H     -120.243     -36.159       8.632
  H     -121.881     -34.292       8.474
  H     -122.489     -35.694       9.391
  P     -121.021     -37.935      12.258
  C     -122.599     -39.672      11.138
  O     -121.508     -39.443      12.020
  O     -122.392     -37.127      12.418
  O     -120.106     -37.725      13.417
  H     -122.689     -37.153      13.348
  H     -122.801     -40.721      11.086
  H     -122.352     -39.308      10.163
  H     -123.465     -39.159      11.501

 6  7  8  9  10  11  12  13  14  15  26  29  33  34 0
 6-311+G(2d,p)
 ****
 36  38  39  40  41 0
 6-311+G(2d,p)
 ****
 1  2  3  4  5  16  17  18  19  20  21  22  23  24  25 0
 3-21G
 ****
 27  28  30  31  32  35  37  42  43  44  45  46  47 0
 3-21G
 ****
 48  49 0
 3-21G
 ****


