%nproc=1
%NoSave
%Mem=1900MB
#P OB98/GEN NMR

erre ene a

0 1
  C     -212.482    -158.164    -180.645
  O     -211.435    -157.232    -180.441
  P     -211.077    -156.862    -178.917
  C     -209.374    -155.105    -179.832
  O     -210.448    -155.389    -178.950
  C     -209.419    -153.631    -180.239
  O     -210.521    -153.392    -181.136
  C     -209.600    -152.667    -179.075
  O     -208.361    -152.426    -178.433
  C     -210.175    -151.444    -179.781
  O     -209.131    -150.668    -180.399
  C     -211.085    -152.085    -180.839
  N     -215.085    -149.666    -178.916
  C     -213.774    -149.248    -179.050
  N     -213.503    -147.985    -178.656
  N     -212.818    -149.998    -179.531
  C     -213.234    -151.241    -179.873
  C     -214.496    -151.775    -179.773
  C     -215.553    -150.918    -179.288
  O     -216.746    -151.207    -179.242
  N     -214.525    -153.077    -180.198
  C     -213.289    -153.318    -180.583
  N     -212.470    -152.230    -180.427
  O     -209.834    -157.812    -178.597
  O     -212.198    -157.031    -177.942
  H     -208.458    -150.446    -179.730
  H     -210.122    -158.606    -178.109
  H     -215.780    -149.039    -178.555
  H     -212.942    -154.252    -180.999
  H     -211.091    -151.517    -181.776
  H     -210.695    -150.775    -179.088
  H     -214.181    -147.360    -178.253
  H     -210.335    -153.061    -178.363
  H     -212.546    -147.663    -178.742
  H     -208.493    -153.406    -180.783
  H     -209.468    -155.729    -180.725
  H     -208.428    -155.340    -179.333
  P     -208.174    -153.003    -176.947
  C     -206.423    -151.127    -176.567
  O     -207.539    -151.831    -176.061
  O     -206.977    -154.056    -177.111
  O     -209.392    -153.650    -176.377
  H     -207.130    -154.817    -176.520
  H     -206.441    -150.109    -176.169
  H     -206.431    -151.081    -177.660
  H     -205.506    -151.620    -176.235
  H     -212.619    -158.322    -181.694
  H     -213.387    -157.782    -180.221
  H     -212.231    -159.091    -180.174

 3  4  5  6  7  8  9  10  11  12  23  26  30  31 0
 6-311+G(2d,p)
 ****
 33  35  36  37  38 0
 6-311+G(2d,p)
 ****
 1  2  13  14  15  16  17  18  19  20  21  22  24  25 0
 3-21G
 ****
 27  28  29  32  34  39  40  41  42  43  44  45  46  47  48  49 0
 3-21G
 ****


