%nproc=1
%NoSave
%Mem=1900MB
#P OB98/GEN NMR

erre ene a

0 1
  C      -19.191    -184.419    -163.547
  O      -19.920    -183.213    -163.500
  H      -18.320    -184.324    -162.890
  H      -18.835    -184.613    -164.561
  H      -19.804    -185.254    -163.196
  P      -21.234    -183.055    -164.409
  C      -19.791    -181.780    -166.108
  O      -20.689    -182.864    -165.915
  C      -19.511    -181.556    -167.596
  O      -20.730    -181.775    -168.357
  C      -19.008    -180.143    -167.925
  O      -17.873    -180.224    -168.792
  C      -20.175    -179.512    -168.669
  O      -19.778    -178.450    -169.532
  C      -20.776    -180.743    -169.357
  N      -22.129    -180.493    -169.842
  C      -22.274    -179.435    -170.744
  O      -21.294    -178.772    -171.093
  N      -23.533    -179.113    -171.184
  C      -24.558    -179.762    -170.729
  N      -25.780    -179.371    -171.189
  C      -24.453    -180.865    -169.757
  C      -23.219    -181.179    -169.360
  O      -22.189    -182.004    -163.946
  O      -21.882    -184.516    -164.452
  H      -19.584    -177.658    -168.983
  H      -22.839    -184.436    -164.675
  H      -25.341    -181.370    -169.406
  H      -23.041    -181.977    -168.646
  H      -20.154    -181.059    -170.206
  H      -20.890    -179.106    -167.942
  H      -18.738    -179.566    -167.043
  H      -18.800    -182.321    -167.934
  H      -25.809    -178.604    -171.852
  H      -18.860    -181.996    -165.573
  H      -26.650    -179.785    -170.889
  H      -20.246    -180.875    -165.691
  P      -16.439    -179.984    -168.111
  C      -15.590    -177.867    -169.353
  O      -16.129    -178.411    -168.156
  O      -15.417    -180.611    -169.172
  O      -16.303    -180.625    -166.770
  H      -15.026    -181.429    -168.809
  H      -15.439    -176.815    -169.230
  H      -16.271    -178.037    -170.161
  H      -14.655    -178.339    -169.570

 6  7  8  9  10  11  12  13  14  15  16  26  30  31  32  33  35 0
 6-311+G(2d,p)
 ****
 37  38 0
 6-311+G(2d,p)
 ****
 1  2  3  4  5  17  18  19  20  21  22  23  24  25 0
 3-21G
 ****
 27  28  29  34  36  39  40  41  42  43  44  45  46 0
 3-21G
 ****


