%nproc=1
%NoSave
%Mem=1900MB
#P OB98/GEN NMR

erre ene a

0 1
  C     -611.613    -137.398     349.846
  O     -612.297    -138.173     348.881
  P     -611.774    -139.638     348.490
  C     -609.638    -140.608     347.304
  O     -610.449    -139.492     347.613
  C     -609.687    -140.852     345.784
  O     -609.538    -139.604     345.081
  C     -608.572    -141.787     345.340
  O     -609.029    -143.131     345.279
  C     -608.185    -141.227     343.980
  O     -609.104    -141.694     342.968
  C     -608.372    -139.703     344.214
  N     -607.262    -138.957     344.857
  C     -606.236    -138.447     344.072
  O     -606.201    -138.536     342.847
  N     -605.218    -137.825     344.757
  C     -605.181    -137.638     346.116
  O     -604.161    -137.300     346.739
  C     -606.403    -137.964     346.842
  C     -607.362    -138.626     346.198
  O     -612.869    -140.150     347.432
  O     -611.617    -140.588     349.634
  H     -610.000    -141.533     343.305
  H     -613.519    -140.727     347.869
  H     -604.404    -137.562     344.213
  H     -606.450    -137.704     347.900
  H     -608.273    -138.900     346.732
  H     -608.604    -139.187     343.273
  H     -607.203    -141.563     343.683
  H     -607.713    -141.701     346.016
  H     -610.667    -141.282     345.533
  H     -609.987    -141.489     347.847
  H     -608.603    -140.416     347.623
  P     -607.974    -144.331     345.190
  C     -606.084    -144.940     343.570
  O     -607.003    -143.952     343.966
  O     -608.557    -145.713     345.148
  O     -607.058    -144.117     346.493
  H     -607.358    -144.707     347.222
  H     -605.610    -144.630     342.631
  H     -606.582    -145.898     343.424
  H     -605.303    -145.037     344.342
  H     -612.111    -136.459     349.968
  H     -610.608    -137.229     349.520
  H     -611.602    -137.920     350.780

 3  4  5  6  7  8  9  10  11  12  13  23  28  29  30  31  32 0
 6-311+G(2d,p)
 ****
 33  34 0
 6-311+G(2d,p)
 ****
 1  2  14  15  16  17  18  19  20  21  22  24  25  26  27 0
 3-21G
 ****
 35  36  37  38  39  40  41  42  43  44  45 0
 3-21G
 ****


