%nproc=1
%NoSave
%Mem=1900MB
#P OB98/GEN NMR

erre ene a

0 1
  C      631.449    -250.916    -252.486
  O      630.971    -250.379    -251.271
  H      630.833    -251.786    -252.754
  H      632.491    -251.240    -252.391
  H      631.368    -250.168    -253.286
  P      631.853    -249.256    -250.540
  C      634.384    -249.135    -250.000
  O      633.244    -249.978    -250.176
  C      634.912    -249.201    -248.565
  O      634.029    -248.471    -247.674
  C      634.957    -250.618    -248.000
  O      635.949    -251.440    -248.596
  C      635.000    -250.374    -246.497
  O      636.310    -250.145    -245.982
  C      634.156    -249.074    -246.367
  N      632.852    -249.330    -245.757
  C      632.877    -250.050    -244.575
  O      633.910    -250.494    -244.060
  N      631.647    -250.302    -244.005
  C      630.448    -249.945    -244.526
  O      629.380    -250.242    -243.989
  C      630.486    -249.212    -245.787
  C      631.668    -248.925    -246.340
  O      631.209    -248.562    -249.376
  O      632.270    -248.264    -251.729
  H      636.205    -249.889    -245.044
  H      632.587    -247.400    -251.371
  H      631.646    -250.823    -243.140
  H      629.534    -248.909    -246.246
  H      631.721    -248.384    -247.287
  H      634.687    -248.346    -245.744
  H      634.582    -251.221    -245.949
  H      634.004    -251.106    -248.210
  H      635.892    -248.714    -248.532
  H      634.070    -248.100    -250.220
  H      635.170    -249.417    -250.718
  P      635.670    -252.928    -249.085
  C      634.960    -255.193    -247.995
  O      635.426    -253.853    -247.795
  O      636.541    -253.454    -250.181
  O      634.170    -252.794    -249.691
  H      634.104    -253.396    -250.454
  H      634.847    -255.677    -247.047
  H      635.668    -255.732    -248.589
  H      634.016    -255.171    -248.499

 6  7  8  9  10  11  12  13  14  15  16  26  31  32  33  34  35 0
 6-311+G(2d,p)
 ****
 36  37 0
 6-311+G(2d,p)
 ****
 1  2  3  4  5  17  18  19  20  21  22  23  24  25 0
 3-21G
 ****
 27  28  29  30  38  39  40  41  42  43  44  45 0
 3-21G
 ****


