%nproc=1
%NoSave
%Mem=1900MB
#P OB98/GEN NMR

erre ene a

0 1
  C      -50.795     417.824     -63.657
  O      -51.924     418.182     -64.433
  H      -51.135     417.260     -62.785
  H      -50.265     418.717     -63.313
  H      -50.118     417.192     -64.240
  P      -51.696     419.059     -65.755
  C      -52.751     417.223     -67.241
  O      -51.598     418.013     -66.972
  C      -53.321     417.567     -68.617
  O      -52.280     417.537     -69.614
  C      -54.410     416.610     -69.101
  O      -55.662     416.945     -68.523
  C      -54.367     416.876     -70.599
  O      -55.036     418.126     -70.888
  C      -52.857     417.021     -70.850
  N      -52.500     413.226     -74.210
  C      -53.424     414.248     -74.123
  N      -54.414     414.243     -75.044
  N      -53.393     415.188     -73.209
  C      -52.390     415.026     -72.312
  C      -51.424     414.044     -72.283
  C      -51.431     413.052     -73.338
  O      -50.611     412.141     -73.463
  N      -50.627     414.154     -71.165
  C      -51.081     415.231     -70.555
  N      -52.159     415.794     -71.203
  O      -50.568     420.043     -65.708
  O      -53.108     419.776     -66.002
  H      -54.873     418.326     -71.829
  H      -53.139     420.652     -65.576
  H      -52.579     412.528     -74.930
  H      -50.670     415.650     -69.639
  H      -52.638     417.747     -71.643
  H      -54.870     416.101     -71.182
  H      -54.578     413.470     -75.678
  H      -54.139     415.565     -68.919
  H      -55.135     414.953     -74.959
  H      -53.696     418.601     -68.576
  H      -53.486     417.435     -66.455
  H      -52.501     416.158     -67.201
  P      -56.855     415.871     -68.421
  C      -56.055     414.842     -66.177
  O      -56.248     414.645     -67.569
  O      -57.461     415.479     -69.723
  O      -57.881     416.514     -67.379
  H      -58.513     417.147     -67.809
  H      -55.649     413.952     -65.744
  H      -56.993     415.068     -65.715
  H      -55.377     415.655     -66.023

 6  7  8  9  10  11  12  13  14  15  26  29  33  34 0
 6-311+G(2d,p)
 ****
 36  38  39  40  41 0
 6-311+G(2d,p)
 ****
 1  2  3  4  5  16  17  18  19  20  21  22  23  24  25 0
 3-21G
 ****
 27  28  30  31  32  35  37  42  43  44  45  46  47 0
 3-21G
 ****
 48  49 0
 3-21G
 ****


