%nproc=1
%NoSave
%Mem=1900MB
#P OB98/GEN NMR

erre ene a

0 1
  C      -15.481     129.394      51.529
  O      -15.123     128.030      51.396
  H      -15.954     129.726      50.601
  H      -14.585     129.996      51.704
  H      -16.187     129.526      52.355
  P      -14.628     127.290      52.728
  C      -12.406     128.681      52.848
  O      -13.618     128.292      53.482
  C      -11.539     129.479      53.819
  O      -12.156     130.743      54.136
  C      -11.352     128.820      55.177
  O      -10.487     127.707      55.126
  C      -10.795     129.986      55.983
  O       -9.379     130.120      55.811
  C      -11.539     131.196      55.366
  N      -12.501     131.766      56.291
  C      -12.533     133.167      56.337
  O      -11.789     133.826      55.606
  N      -13.373     133.777      57.232
  C      -14.098     133.055      58.031
  N      -14.888     133.723      58.917
  C      -14.094     131.578      58.017
  C      -13.279     131.003      57.131
  O      -13.657     126.157      52.153
  O      -15.722     126.773      53.601
  H       -9.105     130.875      56.372
  H      -13.007     126.487      51.509
  H      -14.728     131.023      58.694
  H      -13.213     129.923      57.052
  H      -10.825     131.983      55.085
  H      -10.976     129.858      57.054
  H      -12.328     128.546      55.602
  H      -10.572     129.674      53.334
  H      -14.817     134.733      58.930
  H      -12.614     129.273      51.950
  H      -15.431     133.269      59.637
  H      -11.887     127.770      52.533
  P      -10.824     126.353      55.915
  C       -9.004     126.846      57.674
  O      -10.386     126.588      57.446
  O      -10.277     125.106      55.306
  O      -12.423     126.382      56.020
  H      -12.789     127.152      56.488
  H       -8.835     126.985      58.721
  H       -8.714     127.730      57.146
  H       -8.424     126.017      57.326

 6  7  8  9  10  11  12  13  14  15  16  26  30  31  32  33  35 0
 6-311+G(2d,p)
 ****
 37  38 0
 6-311+G(2d,p)
 ****
 1  2  3  4  5  17  18  19  20  21  22  23  24  25 0
 3-21G
 ****
 27  28  29  34  36  39  40  41  42  43  44  45  46 0
 3-21G
 ****


