%nproc=1
%NoSave
%Mem=1900MB
#P OB98/GEN NMR

erre ene a

0 1
  C      367.671    -393.111    -176.243
  O      366.641    -394.057    -176.035
  H      368.115    -392.857    -175.277
  H      367.258    -392.201    -176.690
  H      368.449    -393.521    -176.893
  P      365.977    -394.697    -177.356
  C      363.444    -394.071    -177.023
  O      364.680    -393.805    -177.666
  C      362.403    -393.017    -177.401
  O      362.627    -391.833    -176.588
  C      362.452    -392.594    -178.874
  O      361.120    -392.337    -179.319
  C      363.236    -391.288    -178.834
  O      362.961    -390.474    -179.975
  C      362.783    -390.709    -177.488
  N      363.730    -389.732    -176.958
  C      363.521    -388.398    -177.320
  O      362.586    -388.090    -178.072
  N      364.400    -387.432    -176.877
  C      365.438    -387.796    -176.175
  N      366.282    -386.794    -175.784
  C      365.716    -389.186    -175.805
  C      364.827    -390.094    -176.216
  O      365.371    -396.063    -176.778
  O      366.920    -394.872    -178.498
  H      363.387    -389.600    -179.843
  H      364.902    -395.954    -175.932
  H      366.604    -389.438    -175.232
  H      364.956    -391.154    -175.985
  H      361.805    -390.217    -177.588
  H      364.310    -391.502    -178.819
  H      362.911    -393.350    -179.511
  H      361.405    -393.398    -177.140
  H      366.058    -385.856    -176.087
  H      363.575    -394.082    -175.934
  H      367.142    -386.956    -175.284
  H      363.115    -395.064    -177.333
  P      360.342    -393.444    -180.175
  C      360.771    -392.304    -182.464
  O      360.928    -393.477    -181.670
  O      358.853    -393.411    -180.079
  O      360.908    -394.819    -179.550
  H      360.157    -395.439    -179.479
  H      361.204    -392.466    -183.429
  H      361.261    -391.482    -181.986
  H      359.730    -392.084    -182.573

 6  7  8  9  10  11  12  13  14  15  16  26  30  31  32  33  35 0
 6-311+G(2d,p)
 ****
 37  38 0
 6-311+G(2d,p)
 ****
 1  2  3  4  5  17  18  19  20  21  22  23  24  25 0
 3-21G
 ****
 27  28  29  34  36  39  40  41  42  43  44  45  46 0
 3-21G
 ****


