%nproc=1
%NoSave
%Mem=1900MB
#P OB98/GEN NMR

erre ene a

0 1
  C     -185.219      50.521    -178.520
  O     -184.329      49.492    -178.954
  P     -182.996      49.898    -179.750
  C     -182.508      51.267    -181.870
  O     -183.399      50.359    -181.235
  C     -182.846      51.474    -183.354
  O     -182.559      50.276    -184.123
  C     -184.313      51.845    -183.620
  O     -184.320      52.760    -184.724
  C     -184.915      50.513    -184.023
  O     -186.146      50.660    -184.714
  C     -183.760      49.924    -184.838
  N     -183.879      48.486    -185.015
  C     -184.778      48.033    -185.981
  O     -185.505      48.834    -186.571
  N     -184.850      46.684    -186.232
  C     -184.195      45.857    -185.477
  N     -184.275      44.531    -185.767
  C     -183.376      46.291    -184.329
  C     -183.244      47.606    -184.175
  O     -181.880      48.910    -179.678
  O     -182.578      51.285    -179.056
  H     -186.476      49.774    -184.970
  H     -181.603      51.345    -179.035
  H     -182.914      45.563    -183.677
  H     -182.657      48.023    -183.368
  H     -183.701      50.394    -185.828
  H     -185.101      49.909    -183.128
  H     -184.806      52.315    -182.764
  H     -182.194      52.270    -183.736
  H     -184.860      44.245    -186.543
  H     -181.488      50.882    -181.786
  H     -183.754      43.829    -185.259
  H     -182.521      52.217    -181.327
  P     -185.098      54.155    -184.571
  C     -187.146      55.253    -185.734
  O     -186.445      54.065    -185.433
  O     -184.194      55.132    -185.470
  O     -185.209      54.697    -183.182
  H     -184.314      56.048    -185.159
  H     -187.855      55.045    -186.543
  H     -186.467      56.043    -186.065
  H     -187.702      55.589    -184.855
  H     -186.050      50.082    -178.010
  H     -185.571      51.070    -179.369
  H     -184.703      51.183    -177.857

 3  4  5  6  7  8  9  10  11  12  13  23  27  28  29  30  32 0
 6-311+G(2d,p)
 ****
 34  35 0
 6-311+G(2d,p)
 ****
 1  2  14  15  16  17  18  19  20  21  22  24  25  26 0
 3-21G
 ****
 31  33  36  37  38  39  40  41  42  43  44  45  46 0
 3-21G
 ****


