%nproc=1
%NoSave
%Mem=1900MB
#P OB98/GEN NMR

erre ene a

0 1
  C     -366.696      47.743     313.679
  O     -367.605      48.497     314.463
  H     -365.706      47.808     314.135
  H     -366.649      48.156     312.666
  H     -367.005      46.695     313.641
  P     -369.157      48.346     314.099
  C     -369.959      48.742     316.568
  O     -369.990      49.162     315.208
  C     -369.875      49.959     317.492
  O     -368.561      50.542     317.443
  C     -370.800      51.105     317.104
  O     -372.155      50.827     317.377
  C     -370.221      52.230     317.950
  O     -370.739      52.210     319.280
  C     -368.703      51.898     317.945
  N     -367.939      52.861     317.168
  C     -367.579      54.032     317.856
  O     -367.888      54.167     319.036
  N     -366.911      55.010     317.172
  C     -366.653      54.851     315.912
  N     -366.017      55.885     315.279
  C     -367.017      53.642     315.150
  C     -367.658      52.692     315.840
  O     -369.453      46.817     314.472
  O     -369.508      48.714     312.697
  H     -370.542      51.317     319.639
  H     -369.136      46.558     315.353
  H     -366.765      53.553     314.096
  H     -367.956      51.768     315.354
  H     -368.313      51.894     318.967
  H     -370.455      53.208     317.528
  H     -370.655      51.353     316.043
  H     -370.071      49.619     318.523
  H     -365.833      56.713     315.831
  H     -369.111      48.065     316.746
  H     -365.832      55.908     314.292
  H     -370.877      48.173     316.763
  P     -373.265      50.866     316.233
  C     -375.205      49.356     317.042
  O     -374.696      50.690     316.958
  O     -373.041      49.915     315.100
  O     -373.303      52.400     315.799
  H     -373.525      53.020     316.511
  H     -376.152      49.366     317.539
  H     -374.519      48.747     317.593
  H     -375.324      48.957     316.056

 6  7  8  9  10  11  12  13  14  15  16  26  30  31  32  33  35 0
 6-311+G(2d,p)
 ****
 37  38 0
 6-311+G(2d,p)
 ****
 1  2  3  4  5  17  18  19  20  21  22  23  24  25 0
 3-21G
 ****
 27  28  29  34  36  39  40  41  42  43  44  45  46 0
 3-21G
 ****


