%nproc=1
%NoSave
%Mem=1900MB
#P OB98/GEN NMR

erre ene a

0 1
  C      100.520     220.646     598.054
  O      100.173     221.653     599.002
  P       98.814     221.690     599.845
  C       99.453     219.754     601.511
  O       98.582     220.238     600.486
  C       98.910     220.046     602.943
  O       97.579     219.444     603.056
  C       99.787     219.357     603.979
  O      100.976     219.996     604.433
  C       98.827     218.966     605.097
  O       98.760     219.954     606.126
  C       97.473     218.856     604.362
  N       96.111     214.541     606.783
  C       96.631     215.713     607.305
  N       96.877     215.721     608.644
  N       96.923     216.778     606.590
  C       96.710     216.587     605.261
  C       96.216     215.489     604.610
  C       95.865     214.340     605.431
  O       95.373     213.281     605.012
  N       96.168     215.664     603.253
  C       96.654     216.869     603.078
  N       96.992     217.473     604.273
  O       97.642     222.317     599.158
  O       99.187     222.598     601.116
  H       99.608     219.973     606.596
  H       98.363     223.084     601.363
  H       95.896     213.770     607.371
  H       96.787     217.355     602.113
  H       96.689     219.415     604.909
  H       99.150     218.031     605.569
  H       96.786     214.913     609.220
  H      100.129     218.399     603.541
  H       97.450     216.491     608.989
  H       98.793     221.120     603.094
  H      100.426     220.246     601.362
  H       99.622     218.674     601.381
  P      102.471     219.405     604.328
  C      103.002     220.462     602.040
  O      102.817     219.251     602.767
  O      102.311     217.884     604.799
  O      103.488     220.129     605.139
  H      103.209     217.510     605.030
  H      102.921     220.247     600.968
  H      103.987     220.882     602.252
  H      102.218     221.190     602.311
  H      101.481     220.864     597.637
  H       99.789     220.625     597.273
  H      100.550     219.693     598.540

 3  4  5  6  7  8  9  10  11  12  23  26  30  31 0
 6-311+G(2d,p)
 ****
 33  35  36  37  38 0
 6-311+G(2d,p)
 ****
 1  2  13  14  15  16  17  18  19  20  21  22  24  25 0
 3-21G
 ****
 27  28  29  32  34  39  40  41  42  43  44  45  46  47  48  49 0
 3-21G
 ****


