%nproc=1
%NoSave
%Mem=1900MB
#P OB98/GEN NMR

erre ene a

0 1
  C     -332.435     165.967     937.916
  O     -331.127     165.624     938.389
  P     -330.835     164.071     938.658
  C     -331.719     163.534     941.036
  O     -331.973     163.501     939.640
  C     -332.473     162.418     941.778
  O     -331.958     161.110     941.406
  C     -332.382     162.514     943.308
  O     -333.612     162.022     943.850
  C     -331.264     161.529     943.648
  O     -331.319     161.127     945.014
  C     -331.564     160.440     942.616
  N     -328.420     157.009     944.752
  C     -329.487     157.686     945.232
  N     -330.251     158.597     944.598
  C     -329.850     158.753     943.325
  C     -328.789     158.142     942.694
  C     -328.037     157.222     943.467
  N     -326.936     156.552     942.989
  N     -328.659     158.590     941.395
  C     -329.637     159.477     941.255
  N     -330.397     159.579     942.385
  O     -329.520     164.092     939.577
  O     -330.604     163.265     937.400
  H     -330.713     160.370     945.125
  H     -328.745     163.787     939.058
  H     -329.746     157.467     946.269
  H     -329.825     160.060     940.352
  H     -332.388     159.778     942.929
  H     -330.289     161.993     943.458
  H     -332.182     163.518     943.693
  H     -333.523     162.444     941.475
  H     -332.041     164.518     941.456
  H     -326.443     155.947     943.604
  H     -326.607     156.753     942.042
  H     -330.631     163.477     941.216
  P     -334.662     163.115     944.360
  C     -334.121     162.907     946.902
  O     -334.058     163.711     945.739
  O     -335.916     162.240     944.844
  O     -335.039     164.130     943.328
  H     -336.733     162.776     944.795
  H     -333.175     163.008     947.457
  H     -334.266     161.846     946.671
  H     -334.945     163.235     947.544
  H     -332.498     167.026     937.778
  H     -333.166     165.657     938.633
  H     -332.618     165.474     936.984

 3  4  5  6  7  8  9  10  11  12  22  25  29  30  31  32 0
 6-311+G(2d,p)
 ****
 33  36  37 0
 6-311+G(2d,p)
 ****
 1  2  13  14  15  16  17  18  19  20  21  23  24  26 0
 3-21G
 ****
 27  28  34  35  38  39  40  41  42  43  44  45  46  47  48 0
 3-21G
 ****


