%nproc=1
%NoSave
%Mem=1900MB
#P OB98/GEN NMR

erre ene a

0 1
  C       16.351       9.842      37.690
  O       15.394      10.076      38.715
  P       15.365      11.536      39.386
  C       16.518      10.917      41.629
  O       16.627      11.580      40.375
  C       17.860      10.915      42.354
  O       18.852      10.232      41.563
  C       18.433      12.298      42.626
  O       17.870      12.895      43.781
  C       19.896      11.962      42.863
  O       20.071      11.455      44.199
  C       20.138      10.847      41.839
  N       23.984      10.265      38.522
  C       23.724       9.679      39.709
  N       22.684       9.896      40.540
  C       21.880      10.857      40.053
  C       22.038      11.569      38.876
  C       23.146      11.234      38.081
  N       23.393      11.812      36.857
  N       21.012      12.474      38.716
  C       20.242      12.306      39.769
  N       20.719      11.332      40.602
  O       14.117      11.448      40.384
  O       15.241      12.668      38.426
  H       19.716      10.546      44.205
  H       13.775      12.344      40.569
  H       24.442       8.929      40.031
  H       19.332      12.856      39.964
  H       20.797      10.062      42.226
  H       20.554      12.830      42.762
  H       18.344      12.946      41.744
  H       17.736      10.359      43.293
  H       16.202       9.883      41.460
  H       24.095      11.390      36.270
  H       22.663      12.381      36.444
  H       15.758      11.421      42.234
  P       17.554      14.468      43.702
  C       19.954      15.083      44.483
  O       18.973      15.173      43.469
  O       17.179      14.838      45.212
  O       16.470      14.825      42.742
  H       16.600      15.624      45.237
  H       20.928      15.331      44.052
  H       20.004      14.072      44.897
  H       19.729      15.796      45.280
  H       16.257       8.836      37.337
  H       17.336       9.993      38.080
  H       16.180      10.521      36.881

 3  4  5  6  7  8  9  10  11  12  22  25  29  30  31  32 0
 6-311+G(2d,p)
 ****
 33  36  37 0
 6-311+G(2d,p)
 ****
 1  2  13  14  15  16  17  18  19  20  21  23  24  26 0
 3-21G
 ****
 27  28  34  35  38  39  40  41  42  43  44  45  46  47  48 0
 3-21G
 ****


