%nproc=1
%NoSave
%Mem=1900MB
#P OB98/GEN NMR

erre ene a

0 1
  C     -240.302    -328.930     216.836
  O     -239.837    -328.860     215.495
  P     -239.324    -327.445     214.943
  C     -236.893    -327.432     215.844
  O     -238.212    -326.917     215.974
  C     -235.913    -326.340     215.417
  O     -236.327    -325.810     214.129
  C     -235.820    -325.154     216.383
  O     -234.473    -324.671     216.337
  C     -236.740    -324.126     215.755
  O     -236.454    -322.800     216.202
  C     -236.462    -324.380     214.275
  N     -239.354    -320.331     213.104
  C     -238.351    -320.493     213.991
  N     -237.626    -321.600     214.246
  C     -238.034    -322.621     213.471
  C     -239.066    -322.617     212.549
  C     -239.746    -321.400     212.370
  N     -240.764    -321.232     211.459
  N     -239.203    -323.863     211.970
  C     -238.271    -324.603     212.530
  N     -237.525    -323.889     213.426
  O     -240.576    -326.485     215.219
  O     -238.932    -327.427     213.505
  H     -235.511    -322.621     216.035
  H     -240.980    -326.214     214.373
  H     -238.089    -319.610     214.569
  H     -238.100    -325.652     212.329
  H     -235.524    -323.918     213.945
  H     -237.781    -324.351     216.011
  H     -236.100    -325.395     217.415
  H     -234.927    -326.797     215.276
  H     -236.896    -328.217     215.083
  H     -241.105    -320.299     211.293
  H     -240.934    -321.963     210.777
  H     -236.579    -327.871     216.796
  P     -233.910    -323.955     217.654
  C     -232.111    -325.769     218.099
  O     -233.270    -325.103     218.566
  O     -235.238    -323.537     218.444
  O     -233.038    -322.773     217.382
  H     -235.065    -322.755     218.998
  H     -231.489    -326.036     218.956
  H     -231.526    -325.143     217.417
  H     -232.412    -326.683     217.576
  H     -240.608    -329.932     217.056
  H     -241.133    -328.268     216.960
  H     -239.515    -328.643     217.502

 3  4  5  6  7  8  9  10  11  12  22  25  29  30  31  32 0
 6-311+G(2d,p)
 ****
 33  36  37 0
 6-311+G(2d,p)
 ****
 1  2  13  14  15  16  17  18  19  20  21  23  24  26 0
 3-21G
 ****
 27  28  34  35  38  39  40  41  42  43  44  45  46  47  48 0
 3-21G
 ****


