%nproc=1
%NoSave
%Mem=1900MB
#P OB98/GEN NMR

erre ene a

0 1
  C       89.813     -26.409      41.608
  O       89.564     -26.184      40.231
  P       88.064     -25.792      39.810
  C       87.232     -28.098      38.934
  O       87.177     -27.118      39.962
  C       85.883     -28.802      38.806
  O       85.497     -29.369      40.074
  C       84.731     -27.894      38.401
  O       84.785     -27.583      37.018
  C       83.540     -28.751      38.815
  O       83.299     -29.769      37.831
  C       84.045     -29.387      40.121
  N       79.979     -28.117      42.961
  C       80.092     -28.813      41.807
  N       81.206     -29.090      41.100
  C       82.290     -28.575      41.702
  C       82.328     -27.826      42.866
  C       81.102     -27.601      43.511
  N       80.992     -26.888      44.685
  N       83.619     -27.448      43.163
  C       84.351     -27.969      42.201
  N       83.596     -28.671      41.302
  O       88.170     -25.597      38.227
  O       87.517     -24.576      40.490
  H       82.733     -30.449      38.249
  H       87.565     -24.894      37.921
  H       79.162     -29.199      41.398
  H       85.425     -27.871      42.116
  H       83.731     -30.432      40.229
  H       82.614     -28.177      38.928
  H       84.748     -26.967      38.988
  H       85.995     -29.621      38.084
  H       87.996     -28.843      39.179
  H       80.064     -26.648      44.999
  H       81.807     -26.387      45.015
  H       87.511     -27.613      37.995
  P       84.213     -26.155      36.562
  C       81.730     -26.497      35.998
  O       82.671     -26.198      37.013
  O       84.118     -26.334      34.977
  O       84.998     -24.982      37.039
  H       83.678     -27.166      34.729
  H       80.736     -26.547      36.447
  H       81.962     -27.462      35.538
  H       81.736     -25.710      35.238
  H       90.844     -26.660      41.748
  H       89.200     -27.214      41.954
  H       89.584     -25.522      42.161

 3  4  5  6  7  8  9  10  11  12  22  25  29  30  31  32 0
 6-311+G(2d,p)
 ****
 33  36  37 0
 6-311+G(2d,p)
 ****
 1  2  13  14  15  16  17  18  19  20  21  23  24  26 0
 3-21G
 ****
 27  28  34  35  38  39  40  41  42  43  44  45  46  47  48 0
 3-21G
 ****


