%nproc=1
%NoSave
%Mem=1900MB
#P OB98/GEN NMR

erre ene a

0 1
  C      -22.697     -28.457     115.440
  O      -23.972     -28.858     114.993
  P      -24.229     -29.630     113.623
  C      -25.046     -27.452     112.430
  O      -24.167     -28.570     112.422
  C      -25.411     -27.029     110.999
  O      -24.187     -26.874     110.236
  C      -26.248     -28.106     110.288
  O      -27.321     -27.589     109.512
  C      -25.194     -28.929     109.560
  O      -25.713     -29.698     108.487
  C      -24.172     -27.861     109.184
  N      -21.103     -31.114     106.775
  C      -22.409     -30.774     106.484
  N      -23.025     -31.530     105.550
  N      -23.054     -29.808     107.085
  C      -22.346     -29.217     108.074
  C      -21.047     -29.467     108.451
  C      -20.334     -30.514     107.758
  O      -19.214     -30.925     108.058
  N      -20.680     -28.721     109.540
  C      -21.767     -28.043     109.846
  N      -22.815     -28.336     109.005
  O      -25.334     -30.635     113.616
  O      -22.839     -30.431     113.434
  H      -26.263     -29.107     107.940
  H      -23.054     -31.280     113.000
  H      -20.684     -31.924     106.331
  H      -21.861     -27.355     110.678
  H      -24.441     -27.360     108.253
  H      -24.772     -29.637     110.283
  H      -22.603     -32.370     105.179
  H      -26.752     -28.745     111.022
  H      -24.038     -31.467     105.500
  H      -25.914     -26.056     111.027
  H      -24.509     -26.641     112.936
  H      -25.945     -27.673     113.009
  P      -28.808     -28.149     109.361
  C      -28.313     -29.982     107.636
  O      -28.732     -29.696     108.957
  O      -29.376     -27.463     108.033
  O      -29.706     -27.855     110.518
  H      -30.312     -27.221     108.166
  H      -28.566     -31.020     107.405
  H      -27.231     -29.855     107.561
  H      -28.814     -29.325     106.918
  H      -22.790     -27.960     116.383
  H      -22.262     -27.789     114.726
  H      -22.071     -29.318     115.551

 3  4  5  6  7  8  9  10  11  12  23  26  30  31 0
 6-311+G(2d,p)
 ****
 33  35  36  37  38 0
 6-311+G(2d,p)
 ****
 1  2  13  14  15  16  17  18  19  20  21  22  24  25 0
 3-21G
 ****
 27  28  29  32  34  39  40  41  42  43  44  45  46  47  48  49 0
 3-21G
 ****


