%nproc=1
%NoSave
%Mem=1900MB
#P OB98/GEN NMR

erre ene a

0 1
  C     -142.569     234.790     239.919
  O     -141.304     234.881     240.580
  P     -140.208     233.740     240.345
  C     -139.028     234.683     238.245
  O     -138.923     234.379     239.632
  C     -138.118     233.756     237.433
  O     -138.395     233.849     236.016
  C     -136.642     234.113     237.563
  O     -136.036     233.873     238.816
  C     -136.036     233.425     236.352
  O     -135.777     232.043     236.609
  C     -137.165     233.579     235.307
  N     -136.883     234.624     234.322
  C     -136.880     234.220     232.989
  O     -137.054     233.058     232.636
  N     -136.627     235.204     232.071
  C     -136.352     236.511     232.350
  O     -136.112     237.347     231.487
  C     -136.346     236.871     233.776
  C     -136.608     235.927     234.683
  O     -140.709     232.475     239.737
  O     -139.665     233.462     241.835
  H     -136.636     231.610     236.767
  H     -139.547     232.497     241.933
  H     -136.630     234.933     231.098
  H     -136.126     237.898     234.035
  H     -136.609     236.172     235.740
  H     -137.316     232.639     234.764
  H     -135.083     233.880     236.063
  H     -136.544     235.194     237.391
  H     -138.308     232.725     237.742
  H     -138.756     235.726     238.075
  H     -140.075     234.581     237.937
  P     -135.183     234.978     239.605
  C     -136.820     236.888     240.238
  O     -136.154     235.713     240.651
  O     -134.264     235.836     238.806
  O     -134.298     234.053     240.581
  H     -133.436     234.488     240.716
  H     -137.418     237.259     241.074
  H     -137.485     236.675     239.398
  H     -136.096     237.657     239.958
  H     -143.174     235.631     240.189
  H     -143.062     233.887     240.214
  H     -142.418     234.784     238.860

 3  4  5  6  7  8  9  10  11  12  13  23  28  29  30  31  32 0
 6-311+G(2d,p)
 ****
 33  34 0
 6-311+G(2d,p)
 ****
 1  2  14  15  16  17  18  19  20  21  22  24  25  26  27 0
 3-21G
 ****
 35  36  37  38  39  40  41  42  43  44  45 0
 3-21G
 ****


