%nproc=1
%NoSave
%Mem=1900MB
#P OB98/GEN NMR

erre ene a

0 1
  C       83.461     347.375    -595.391
  O       84.422     348.406    -595.367
  H       82.925     347.370    -594.439
  H       83.959     346.407    -595.524
  H       82.734     347.527    -596.195
  P       85.126     348.848    -596.739
  C       84.581     351.379    -596.723
  O       85.579     350.375    -596.560
  C       84.927     352.628    -595.897
  O       84.750     352.324    -594.477
  C       86.397     353.033    -596.079
  O       86.585     354.436    -595.888
  C       87.095     352.277    -594.956
  O       88.346     352.856    -594.581
  C       86.037     352.329    -593.846
  N       88.502     350.308    -589.862
  C       88.850     351.387    -590.659
  N       90.013     352.011    -590.337
  N       88.145     351.800    -591.673
  C       87.050     351.037    -591.922
  C       86.613     349.931    -591.222
  C       87.388     349.501    -590.072
  O       87.134     348.545    -589.363
  N       85.466     349.410    -591.780
  C       85.213     350.195    -592.801
  N       86.130     351.214    -592.922
  O       83.898     348.975    -597.767
  O       86.180     347.916    -597.253
  H       88.788     352.225    -593.991
  H       84.208     348.892    -598.682
  H       89.066     350.050    -589.074
  H       84.377     350.078    -593.491
  H       86.126     353.253    -593.276
  H       87.303     351.266    -595.299
  H       90.669     351.607    -589.690
  H       86.795     352.743    -597.046
  H       90.432     352.591    -591.072
  H       84.229     353.441    -596.136
  H       83.641     350.940    -596.382
  H       84.463     351.633    -597.776
  P       88.005     355.072    -596.275
  C       87.308     356.918    -598.042
  O       87.813     356.578    -596.768
  O       88.417     354.289    -597.613
  O       89.057     354.952    -595.206
  H       89.227     353.748    -597.460
  H       87.272     357.983    -598.139
  H       86.323     356.516    -598.154
  H       87.947     356.512    -598.799

 6  7  8  9  10  11  12  13  14  15  26  29  33  34 0
 6-311+G(2d,p)
 ****
 36  38  39  40  41 0
 6-311+G(2d,p)
 ****
 1  2  3  4  5  16  17  18  19  20  21  22  23  24  25 0
 3-21G
 ****
 27  28  30  31  32  35  37  42  43  44  45  46  47 0
 3-21G
 ****
 48  49 0
 3-21G
 ****


