%nproc=1
%NoSave
%Mem=1900MB
#P OB98/GEN NMR

erre ene a

0 1
  C      452.798    -274.123    -444.192
  O      453.093    -274.665    -442.914
  P      454.002    -275.980    -442.763
  C      454.781    -275.172    -440.434
  O      454.147    -276.204    -441.182
  C      454.156    -275.083    -439.046
  O      454.394    -276.307    -438.323
  C      454.719    -273.970    -438.171
  O      454.205    -272.705    -438.557
  C      454.303    -274.451    -436.786
  O      452.922    -274.137    -436.541
  C      454.475    -275.981    -436.917
  N      455.723    -276.460    -436.334
  C      455.772    -276.529    -434.940
  O      454.805    -276.210    -434.253
  N      456.919    -277.001    -434.348
  C      457.933    -277.348    -435.077
  N      459.018    -277.870    -434.437
  C      457.943    -277.236    -436.547
  C      456.817    -276.796    -437.103
  O      455.293    -275.941    -443.506
  O      453.044    -277.179    -443.194
  H      452.849    -273.164    -436.553
  H      453.063    -277.374    -444.165
  H      458.816    -277.525    -437.116
  H      456.733    -276.706    -438.177
  H      453.640    -276.498    -436.435
  H      454.893    -274.015    -435.974
  H      455.813    -273.948    -438.236
  H      453.070    -274.961    -439.165
  H      458.898    -278.089    -433.456
  H      454.635    -274.222    -440.956
  H      459.707    -278.418    -434.935
  H      455.854    -275.382    -440.370
  P      455.259    -271.524    -438.814
  C      453.210    -270.496    -440.025
  O      454.391    -270.254    -439.282
  O      456.024    -271.995    -440.139
  O      456.196    -271.276    -437.679
  H      456.891    -272.377    -439.912
  H      452.624    -269.572    -440.056
  H      452.607    -271.281    -439.556
  H      453.464    -270.784    -441.048
  H      452.184    -273.254    -444.078
  H      452.279    -274.853    -444.778
  H      453.709    -273.853    -444.684

 3  4  5  6  7  8  9  10  11  12  13  23  27  28  29  30  32 0
 6-311+G(2d,p)
 ****
 34  35 0
 6-311+G(2d,p)
 ****
 1  2  14  15  16  17  18  19  20  21  22  24  25  26 0
 3-21G
 ****
 31  33  36  37  38  39  40  41  42  43  44  45  46 0
 3-21G
 ****


