%nproc=1
%NoSave
%Mem=1900MB
#P OB98/GEN NMR

erre ene a

0 1
  C     -595.978     138.592     -26.537
  O     -596.087     138.492     -27.944
  H     -596.869     139.085     -26.148
  H     -595.097     139.186     -26.274
  H     -595.900     137.593     -26.093
  P     -594.872     137.773     -28.707
  C     -596.247     136.285     -30.348
  O     -595.420     137.422     -30.173
  C     -596.884     136.291     -31.742
  O     -597.838     137.388     -31.815
  C     -595.875     136.504     -32.887
  O     -596.389     135.851     -34.059
  C     -595.937     138.011     -33.070
  O     -595.330     138.396     -34.285
  C     -597.441     138.220     -32.931
  N     -598.893     142.614     -35.107
  C     -598.661     141.389     -35.621
  N     -598.290     140.262     -34.984
  C     -598.179     140.488     -33.660
  C     -598.398     141.675     -32.989
  C     -598.768     142.783     -33.770
  N     -598.999     144.036     -33.250
  N     -598.184     141.515     -31.628
  C     -597.848     140.247     -31.489
  N     -597.827     139.591     -32.685
  O     -594.774     136.350     -27.985
  O     -593.576     138.507     -28.680
  H     -595.296     139.374     -34.367
  H     -594.098     136.380     -27.281
  H     -598.791     141.298     -36.702
  H     -597.605     139.763     -30.548
  H     -597.986     137.874     -33.816
  H     -595.394     138.525     -32.273
  H     -594.872     136.118     -32.661
  H     -597.452     135.362     -31.880
  H     -597.036     136.307     -29.579
  H     -595.652     135.371     -30.220
  H     -599.244     144.781     -33.877
  H     -598.892     144.181     -32.256
  P     -595.402     134.925     -34.928
  C     -596.484     132.569     -35.286
  O     -596.290     133.886     -35.775
  O     -594.756     133.974     -33.811
  O     -594.339     135.649     -35.690
  H     -593.872     133.689     -34.097
  H     -597.095     132.020     -35.972
  H     -596.967     132.610     -34.332
  H     -595.536     132.083     -35.185

 6  7  8  9  10  11  12  13  14  15  25  28  32  33  34  35 0
 6-311+G(2d,p)
 ****
 36  37  40 0
 6-311+G(2d,p)
 ****
 1  2  3  4  5  16  17  18  19  20  21  22  23  24 0
 3-21G
 ****
 26  27  29  30  31  38  39 41  42  43  44  45  46  47  48 0
 3-21G
 ****


