%nproc=1
%NoSave
%Mem=1900MB
#P OB98/GEN NMR

erre ene a

0 1
  C      676.933    -894.593     338.741
  O      678.274    -894.903     339.086
  H      676.600    -893.763     339.364
  H      676.293    -895.463     338.947
  H      676.857    -894.313     337.683
  P      679.065    -895.993     338.206
  C      681.475    -896.933     338.231
  O      680.629    -895.833     338.562
  C      682.939    -896.523     338.385
  O      683.221    -895.333     337.633
  C      683.319    -896.183     339.827
  O      683.483    -897.363     340.609
  C      684.601    -895.393     339.615
  O      685.719    -896.263     339.404
  C      684.255    -894.593     338.329
  N      683.844    -893.213     338.593
  C      684.813    -892.233     338.427
  O      685.966    -892.483     338.080
  N      684.405    -890.953     338.676
  C      683.189    -890.583     339.179
  O      682.907    -889.413     339.464
  C      682.212    -891.663     339.368
  C      682.577    -892.893     339.083
  O      678.744    -896.013     336.750
  O      678.683    -897.383     338.908
  H      685.796    -896.813     340.213
  H      678.027    -897.843     338.358
  H      685.091    -890.223     338.562
  H      681.244    -891.403     339.768
  H      681.871    -893.723     339.214
  H      685.122    -894.563     337.656
  H      684.838    -894.753     340.457
  H      682.567    -895.523     340.281
  H      683.575    -897.323     338.003
  H      681.289    -897.193     337.172
  H      681.228    -897.793     338.876
  P      683.152    -897.333     342.165
  C      682.476    -899.043     343.960
  O      682.498    -898.743     342.573
  O      682.402    -896.123     342.651
  O      684.608    -897.393     342.865
  H      684.745    -896.603     343.409
  H      682.021    -900.000     344.111
  H      681.913    -898.295     344.478
  H      683.477    -899.061     344.337

 6  7  8  9  10  11  12  13  14  15  16  26  31  32  33  34  35 0
 6-311+G(2d,p)
 ****
 36  37 0
 6-311+G(2d,p)
 ****
 1  2  3  4  5  17  18  19  20  21  22  23  24  25 0
 3-21G
 ****
 27  28  29  30  38  39  40  41  42  43  44  45 0
 3-21G
 ****


