%nproc=1
%NoSave
%Mem=1900MB
#P OB98/GEN NMR

erre ene a

0 1
  C      362.558     909.518    -197.739
  O      363.199     910.433    -198.602
  H      362.048     910.077    -196.951
  H      363.306     908.862    -197.280
  H      361.823     908.918    -198.278
  P      363.630     909.948    -200.062
  C      366.191     910.158    -199.820
  O      365.013     910.658    -200.447
  C      367.428     910.982    -200.180
  O      367.658     910.914    -201.602
  C      367.256     912.475    -199.833
  O      367.618     912.808    -198.511
  C      368.186     913.135    -200.834
  O      369.532     913.226    -200.329
  C      368.143     912.188    -202.051
  N      367.879     913.939    -206.852
  C      369.007     913.682    -206.069
  N      370.192     913.974    -206.650
  N      368.946     913.215    -204.859
  C      367.687     913.079    -204.388
  C      366.503     913.307    -205.057
  C      366.576     913.751    -206.429
  O      365.614     913.975    -207.161
  N      365.423     913.088    -204.241
  C      365.946     912.815    -203.062
  N      367.321     912.704    -203.127
  O      362.582     910.692    -201.028
  O      363.584     908.464    -200.289
  H      369.534     913.851    -199.587
  H      362.403     910.141    -201.814
  H      367.988     914.271    -207.792
  H      365.387     912.635    -202.152
  H      369.150     912.022    -202.461
  H      367.870     914.151    -201.056
  H      370.293     914.429    -207.551
  H      366.237     912.799    -200.044
  H      371.033     913.990    -206.051
  H      368.308     910.549    -199.692
  H      366.318     909.134    -200.164
  H      366.063     910.128    -198.731
  P      366.535     912.824    -197.334
  C      367.118     915.308    -196.659
  O      366.936     913.949    -196.282
  O      366.828     911.460    -196.556
  O      365.115     912.918    -197.779
  H      366.213     910.766    -196.820
  H      367.383     915.885    -195.797
  H      366.209     915.687    -197.076
  H      367.900     915.375    -197.387

 6  7  8  9  10  11  12  13  14  15  26  29  33  34 0
 6-311+G(2d,p)
 ****
 36  38  39  40  41 0
 6-311+G(2d,p)
 ****
 1  2  3  4  5  16  17  18  19  20  21  22  23  24  25 0
 3-21G
 ****
 27  28  30  31  32  35  37  42  43  44  45  46  47 0
 3-21G
 ****
 48  49 0
 3-21G
 ****


