%nproc=1
%NoSave
%Mem=1900MB
#P OB98/GEN NMR

erre ene a

0 1
  C     -985.543    -613.343      14.511
  O     -984.669    -612.257      14.379
  H     -986.569    -612.969      14.567
  H     -985.325    -613.901      15.425
  H     -985.461    -614.010      13.641
  P     -983.095    -612.599      14.252
  C     -983.183    -612.328      11.664
  O     -982.874    -613.174      12.775
  C     -981.897    -611.929      10.946
  O     -981.309    -613.084      10.302
  C     -982.099    -610.907       9.839
  O     -982.264    -609.576      10.338
  C     -980.844    -611.096       9.015
  O     -979.736    -610.370       9.571
  C     -980.587    -612.614       9.151
  N     -979.244    -616.167       5.737
  C     -978.645    -615.711       6.873
  N     -979.077    -614.771       7.725
  C     -980.275    -614.309       7.341
  C     -981.022    -614.680       6.224
  C     -980.459    -615.657       5.404
  N     -981.057    -616.099       4.248
  N     -982.175    -613.935       6.160
  C     -982.153    -613.159       7.209
  N     -981.016    -613.333       7.958
  O     -982.946    -613.888      15.198
  O     -982.171    -611.496      14.658
  H     -980.010    -609.432       9.584
  H     -982.577    -613.625      16.053
  H     -977.678    -616.175       7.082
  H     -982.912    -612.425       7.469
  H     -979.528    -612.849       9.305
  H     -980.984    -610.770       7.985
  H     -982.981    -611.189       9.220
  H     -981.190    -611.556      11.699
  H     -983.704    -611.427      12.035
  H     -983.859    -612.873      10.993
  H     -980.567    -616.759       3.672
  H     -981.904    -615.635       3.937
  P     -983.024    -608.508       9.405
  C     -985.064    -608.343      11.029
  O     -984.590    -608.662       9.726
  O     -982.900    -609.128       7.933
  O     -982.488    -607.133       9.483
  H     -982.809    -608.405       7.280
  H     -986.122    -608.500      11.072
  H     -984.846    -607.318      11.247
  H     -984.581    -608.971      11.748

 6  7  8  9  10  11  12  13  14  15  25  28  32  33  34  35 0
 6-311+G(2d,p)
 ****
 36  37  40 0
 6-311+G(2d,p)
 ****
 1  2  3  4  5  16  17  18  19  20  21  22  23  24 0
 3-21G
 ****
 26  27  29  30  31  38  39 41  42  43  44  45  46  47  48 0
 3-21G
 ****


