%nproc=1
%NoSave
%Mem=1900MB
#P OB98/GEN NMR

erre ene a

0 1
  C      213.690    -114.415       2.679
  O      214.176    -113.097       2.840
  H      214.321    -114.934       1.951
  H      212.663    -114.404       2.305
  H      213.735    -114.956       3.628
  P      213.372    -112.100       3.800
  C      212.448    -110.922       1.690
  O      213.100    -110.771       2.946
  C      211.795    -109.609       1.263
  O      211.271    -109.723      -0.075
  C      210.620    -109.186       2.135
  O      211.074    -108.672       3.370
  C      209.940    -108.181       1.219
  O      210.627    -106.921       1.238
  C      210.104    -108.870      -0.160
  N      208.930    -109.635      -0.570
  C      208.674    -109.678      -1.945
  O      209.407    -109.080      -2.732
  N      207.581    -110.384      -2.385
  C      206.839    -111.026      -1.539
  N      205.774    -111.709      -2.039
  C      207.095    -111.035      -0.086
  C      208.137    -110.318       0.327
  O      213.972    -111.854       5.150
  O      211.919    -112.761       3.913
  H      211.567    -107.121       1.049
  H      211.862    -113.330       4.702
  H      206.454    -111.592       0.583
  H      208.395    -110.272       1.380
  H      210.312    -108.125      -0.938
  H      208.907    -107.987       1.508
  H      209.936    -110.029       2.288
  H      212.572    -108.834       1.248
  H      205.652    -111.692      -3.047
  H      211.686    -111.698       1.815
  H      205.231    -112.371      -1.503
  H      213.158    -111.257       0.924
  P      210.494    -109.206       4.767
  C      208.909    -107.198       5.035
  O      210.022    -107.900       5.570
  O      211.400    -110.117       5.523
  O      209.102    -109.882       4.363
  H      209.256    -110.771       3.952
  H      208.690    -106.352       5.653
  H      208.059    -107.847       5.005
  H      209.139    -106.866       4.044

 6  7  8  9  10  11  12  13  14  15  16  26  30  31  32  33  35 0
 6-311+G(2d,p)
 ****
 37  38 0
 6-311+G(2d,p)
 ****
 1  2  3  4  5  17  18  19  20  21  22  23  24  25 0
 3-21G
 ****
 27  28  29  34  36  39  40  41  42  43  44  45  46 0
 3-21G
 ****


