%nproc=1
%NoSave
%Mem=1900MB
#P OB98/GEN NMR

erre ene a

0 1
  C     -220.038    -227.659    -321.446
  O     -220.005    -227.358    -320.064
  H     -219.025    -227.905    -321.774
  H     -220.389    -226.788    -322.010
  H     -220.687    -228.516    -321.645
  P     -221.389    -227.225    -319.268
  C     -223.402    -225.604    -319.289
  O     -222.122    -225.911    -319.832
  C     -223.986    -224.362    -319.957
  O     -223.318    -223.177    -319.413
  C     -223.797    -224.318    -321.493
  O     -224.931    -223.629    -322.044
  C     -222.537    -223.487    -321.613
  O     -222.330    -223.038    -322.928
  C     -222.812    -222.432    -320.540
  N     -221.647    -221.642    -320.181
  C     -221.842    -220.291    -319.910
  O     -222.942    -219.739    -319.933
  N     -220.706    -219.578    -319.615
  C     -219.439    -220.066    -319.573
  O     -218.460    -219.382    -319.278
  C     -219.288    -221.495    -319.898
  C     -220.381    -222.202    -320.181
  O     -221.295    -227.303    -317.778
  O     -222.282    -228.414    -319.861
  H     -222.244    -229.184    -319.259
  H     -222.202    -223.795    -323.533
  H     -220.832    -218.596    -319.418
  H     -218.292    -221.908    -319.893
  H     -220.309    -223.264    -320.430
  H     -223.617    -221.759    -320.862
  H     -221.660    -224.093    -321.344
  H     -223.725    -225.319    -321.939
  H     -225.053    -224.274    -319.688
  H     -223.285    -225.431    -318.216
  H     -224.072    -226.459    -319.440
  P     -225.677    -224.081    -323.390
  C     -225.588    -223.493    -325.902
  O     -225.310    -223.060    -324.572
  O     -227.144    -224.294    -323.220
  O     -224.955    -225.448    -323.832
  H     -225.630    -226.047    -324.225
  H     -225.300    -222.729    -326.593
  H     -226.635    -223.689    -326.002
  H     -225.037    -224.387    -326.109

 6  7  8  9  10  11  12  13  14  15  16  27  31  32  33  34  35 0
 6-311+G(2d,p)
 ****
 36  37 0
 6-311+G(2d,p)
 ****
 1  2  3  4  5  17  18  19  20  21  22  23  24  25 0
 3-21G
 ****
 26  28  29  30  38  39  40  41  42  43  44  45 0
 3-21G
 ****


