%nproc=1
%NoSave
%Mem=1900MB
#P OB98/GEN NMR

erre ene a

0 1
  C      -54.631      -1.754      42.080
  O      -54.664      -0.673      42.992
  H      -53.830      -1.577      41.357
  H      -55.584      -1.827      41.543
  H      -54.425      -2.687      42.612
  P      -55.802      -0.723      44.125
  C      -56.526       1.579      43.173
  O      -56.937       0.282      43.590
  C      -57.203       1.956      41.859
  O      -56.855       1.011      40.827
  C      -58.726       1.986      41.918
  O      -59.181       3.220      42.441
  C      -59.078       1.838      40.441
  O      -58.962       3.120      39.790
  C      -57.983       0.884      39.924
  N      -59.321      -2.961      36.796
  C      -59.182      -1.639      36.578
  N      -58.877      -0.668      37.464
  C      -58.706      -1.179      38.697
  C      -58.821      -2.514      39.073
  C      -59.140      -3.430      38.054
  N      -59.285      -4.783      38.285
  N      -58.577      -2.667      40.424
  C      -58.262      -1.458      40.838
  N      -58.358      -0.517      39.839
  O      -55.329      -0.503      45.526
  O      -56.449      -2.159      43.841
  H      -58.054       3.436      39.953
  H      -56.528      -2.317      42.886
  H      -59.339      -1.315      35.553
  H      -57.938      -1.209      41.842
  H      -57.639       1.177      38.923
  H      -60.100       1.491      40.289
  H      -59.128       1.122      42.472
  H      -56.810       2.938      41.546
  H      -55.434       1.610      43.053
  H      -59.703      -5.328      37.546
  H      -59.279      -5.104      39.244
  H      -56.805       2.288      43.965
  P      -60.031       3.283      43.797
  C      -62.119       3.767      42.368
  O      -61.537       2.927      43.361
  O      -59.864       4.543      44.579
  O      -59.577       1.985      44.611
  H      -59.835       2.069      45.553
  H      -63.115       3.436      42.160
  H      -61.534       3.720      41.474
  H      -62.145       4.775      42.725

 6  7  8  9  10  11  12  13  14  15  25  28  32  33  34  35 0
 6-311+G(2d,p)
 ****
 36  39  40 0
 6-311+G(2d,p)
 ****
 1  2  3  4  5  16  17  18  19  20  21  22  23  24 0
 3-21G
 ****
 26  27  29  30  31  37  38  41  42  43  44  45  46  47 0
 3-21G
 ****
 48 0
 3-21G
 ****


