%nproc=1
%NoSave
%Mem=1900MB
#P OB98/GEN NMR

erre ene a

0 1
  C      -50.006    -120.594      -8.795
  O      -49.404    -121.094      -9.978
  P      -50.209    -120.965     -11.356
  C      -49.233    -118.820     -12.457
  O      -50.300    -119.404     -11.721
  C      -49.719    -118.395     -13.846
  O      -50.126    -119.579     -14.599
  C      -50.914    -117.434     -13.825
  O      -50.776    -116.548     -14.946
  C      -52.090    -118.365     -14.056
  O      -53.253    -117.696     -14.518
  C      -51.466    -119.337     -15.064
  N      -52.227    -120.582     -15.196
  C      -53.398    -120.537     -15.940
  O      -53.833    -119.521     -16.485
  N      -54.118    -121.701     -15.991
  C      -53.834    -122.854     -15.317
  O      -54.580    -123.824     -15.312
  C      -52.577    -122.844     -14.545
  C      -51.846    -121.725     -14.523
  O      -51.709    -121.344     -10.945
  O      -49.698    -121.831     -12.459
  H      -53.005    -117.182     -15.302
  H      -51.905    -122.268     -11.192
  H      -54.969    -121.693     -16.538
  H      -52.309    -123.745     -14.013
  H      -50.928    -121.688     -13.944
  H      -51.385    -118.860     -16.045
  H      -52.342    -118.872     -13.116
  H      -51.004    -116.861     -12.897
  H      -48.876    -117.946     -14.387
  H      -48.429    -119.547     -12.566
  H      -48.838    -117.960     -11.906
  P      -51.441    -115.088     -14.841
  C      -49.377    -114.011     -13.659
  O      -50.742    -114.355     -13.602
  O      -52.901    -115.468     -14.296
  O      -51.464    -114.344     -16.135
  H      -52.880    -116.142     -13.595
  H      -49.071    -113.734     -14.670
  H      -48.778    -114.857     -13.319
  H      -49.196    -113.163     -12.990
  H      -49.349    -120.753      -7.966
  H      -50.930    -121.105      -8.621
  H      -50.193    -119.546      -8.906

 3  4  5  6  7  8  9  10  11  12  13  23  28  29  30  31  32 0
 6-311+G(2d,p)
 ****
 33  34 0
 6-311+G(2d,p)
 ****
 1  2  14  15  16  17  18  19  20  21  22  24  25  26 0
 3-21G
 ****
 27  35  36  37  38  39  40  41  42  43  44  45 0
 3-21G
 ****


