%nproc=1
%NoSave
%Mem=1900MB
#P OB98/GEN NMR

erre ene a

0 1
  C      149.144     756.146     809.832
  O      148.101     755.357     810.400
  P      147.314     754.294     809.497
  C      145.851     752.203     809.844
  O      146.666     753.189     810.471
  C      145.296     751.238     810.878
  O      146.362     750.572     811.600
  C      144.453     751.910     811.962
  O      143.190     752.329     811.479
  C      144.414     750.802     813.018
  O      143.416     749.828     812.695
  C      145.820     750.199     812.891
  N      146.711     750.624     813.968
  C      146.414     750.103     815.237
  O      145.441     749.384     815.401
  N      147.288     750.398     816.271
  C      148.247     751.242     816.084
  N      149.103     751.456     817.132
  C      148.479     751.951     814.797
  C      147.698     751.583     813.798
  O      148.104     753.741     808.347
  O      146.027     755.092     808.972
  H      145.961     754.987     808.011
  H      143.331     749.246     813.485
  H      149.260     752.697     814.736
  H      147.791     752.017     812.813
  H      145.771     749.113     812.891
  H      144.168     751.211     814.017
  H      144.996     752.781     812.361
  H      144.707     750.476     810.348
  H      148.925     750.942     817.984
  H      146.468     751.656     809.124
  H      150.039     751.833     816.999
  H      145.045     752.702     809.297
  P      142.049     752.599     812.572
  C      139.551     753.310     812.501
  O      140.780     753.212     811.805
  O      142.619     753.842     813.414
  O      141.738     751.442     813.462
  H      142.374     753.749     814.344
  H      138.917     754.036     811.990
  H      139.699     753.631     813.537
  H      139.057     752.336     812.495
  H      149.550     756.794     810.581
  H      148.750     756.733     809.029
  H      149.915     755.504     809.460

 3  4  5  6  7  8  9  10  11  12  13  24  27  28  29  30  32 0
 6-311+G(2d,p)
 ****
 34  35 0
 6-311+G(2d,p)
 ****
 1  2  14  15  16  17  18  19  20  21  22  23  25  26 0
 3-21G
 ****
 31  33  36  37  38  39  40  41  42  43  44  45  46 0
 3-21G
 ****


