%nproc=1
%NoSave
%Mem=1900MB
#P OB98/GEN NMR

erre ene a

0 1
  C      857.997     -28.082     241.295
  O      857.035     -28.786     240.536
  P      856.784     -28.406     238.996
  C      857.677     -30.688     238.229
  O      857.779     -29.282     238.093
  C      857.028     -31.305     236.993
  O      857.910     -31.209     235.850
  C      856.715     -32.783     237.126
  O      855.600     -33.019     237.976
  C      856.493     -33.175     235.668
  O      855.177     -32.809     235.227
  C      857.557     -32.300     234.963
  N      858.730     -33.062     234.561
  C      858.576     -33.880     233.427
  O      857.479     -33.986     232.887
  N      859.673     -34.554     232.961
  C      860.779     -34.524     233.623
  N      861.851     -35.167     233.082
  C      860.938     -33.810     234.908
  C      859.892     -33.086     235.296
  O      856.782     -26.943     238.695
  O      855.354     -29.059     238.665
  H      854.786     -28.370     238.253
  H      854.578     -33.519     235.519
  H      861.865     -33.871     235.457
  H      859.921     -32.506     236.220
  H      857.123     -31.825     234.066
  H      856.612     -34.246     235.493
  H      857.589     -33.315     237.516
  H      856.113     -30.733     236.772
  H      861.714     -35.637     232.193
  H      857.064     -30.914     239.112
  H      862.819     -34.944     233.333
  H      858.679     -31.117     238.386
  P      855.565     -34.424     238.751
  C      856.835     -33.675     240.874
  O      856.841     -34.480     239.711
  O      855.894     -35.484     237.611
  O      854.259     -34.727     239.412
  H      855.375     -36.301     237.754
  H      857.584     -34.078     241.575
  H      855.857     -33.683     241.361
  H      857.120     -32.651     240.620
  H      858.022     -28.474     242.290
  H      857.737     -27.045     241.326
  H      858.960     -28.195     240.843

 3  4  5  6  7  8  9  10  11  12  13  24  27  28  29  30  32 0
 6-311+G(2d,p)
 ****
 34  35 0
 6-311+G(2d,p)
 ****
 1  2  14  15  16  17  18  19  20  21  22  23  25  26 0
 3-21G
 ****
 31  33  36  37  38  39  40  41  42  43  44  45  46 0
 3-21G
 ****


