%nproc=1
%NoSave
%Mem=1900MB
#P OB98/GEN NMR

erre ene a

0 1
  C     -615.488    -560.144     140.127
  O     -614.235    -559.631     140.536
  H     -615.322    -560.844     139.302
  H     -616.134    -559.333     139.775
  H     -615.968    -560.670     140.951
  P     -614.252    -558.587     141.762
  C     -613.312    -560.180     143.589
  O     -613.091    -559.044     142.763
  C     -612.103    -560.387     144.503
  O     -610.976    -560.860     143.731
  C     -611.619    -559.121     145.195
  O     -612.416    -558.768     146.307
  C     -610.198    -559.520     145.567
  O     -610.167    -560.267     146.785
  C     -609.777    -560.409     144.391
  N     -605.022    -560.075     142.556
  C     -605.594    -560.938     143.438
  N     -606.871    -560.966     143.859
  C     -607.594    -560.004     143.260
  C     -607.151    -559.054     142.357
  C     -605.793    -559.113     141.994
  N     -605.192    -558.229     141.127
  N     -608.182    -558.203     142.003
  C     -609.228    -558.621     142.682
  N     -608.922    -559.706     143.449
  O     -615.593    -558.959     142.542
  O     -614.223    -557.148     141.357
  H     -610.680    -561.088     146.618
  H     -616.305    -558.341     142.299
  H     -604.940    -561.699     143.833
  H     -610.208    -558.168     142.643
  H     -609.226    -561.307     144.717
  H     -609.565    -558.642     145.695
  H     -611.568    -558.299     144.473
  H     -612.362    -561.170     145.244
  H     -613.456    -561.063     142.965
  H     -614.218    -560.006     144.179
  H     -604.208    -558.293     140.971
  H     -605.736    -557.439     140.794
  P     -612.829    -557.231     146.460
  C     -615.440    -557.368     146.466
  O     -614.247    -557.191     147.222
  O     -613.187    -556.767     144.975
  O     -611.782    -556.369     147.086
  H     -612.909    -555.832     144.848
  H     -616.287    -557.314     147.118
  H     -615.419    -558.324     145.986
  H     -615.511    -556.599     145.726

 6  7  8  9  10  11  12  13  14  15  25  28  32  33  34  35 0
 6-311+G(2d,p)
 ****
 36  37  40 0
 6-311+G(2d,p)
 ****
 1  2  3  4  5  16  17  18  19  20  21  22  23  24 0
 3-21G
 ****
 26  27  29  30  31  38  39 41  42  43  44  45  46  47  48 0
 3-21G
 ****


