%nproc=1
%NoSave
%Mem=1900MB
#P OB98/GEN NMR

erre ene a

0 1
  C       71.076    -891.465    -472.465
  O       71.491    -891.396    -471.115
  H       70.099    -891.947    -472.511
  H       71.786    -892.052    -473.056
  H       70.989    -890.455    -472.887
  P       72.951    -890.828    -470.790
  C       74.000    -888.488    -470.447
  O       72.820    -889.227    -470.727
  C       73.662    -887.153    -469.773
  O       72.741    -886.415    -470.629
  C       72.977    -887.311    -468.400
  O       73.328    -886.168    -467.609
  C       71.508    -887.251    -468.791
  O       70.684    -887.046    -467.666
  C       71.551    -886.149    -469.854
  N       70.352    -886.133    -470.682
  C       69.190    -885.662    -470.074
  O       69.208    -885.302    -468.895
  N       68.025    -885.630    -470.802
  C       68.010    -886.094    -472.015
  N       66.826    -886.057    -472.674
  C       69.210    -886.659    -472.673
  C       70.337    -886.634    -471.961
  O       74.052    -891.337    -471.663
  O       73.188    -891.228    -469.258
  H       69.736    -887.041    -467.920
  H       73.807    -891.984    -469.207
  H       69.145    -887.051    -473.676
  H       71.266    -887.028    -472.365
  H       71.671    -885.161    -469.388
  H       71.191    -888.201    -469.237
  H       73.256    -888.233    -467.883
  H       74.573    -886.555    -469.684
  H       66.028    -885.669    -472.178
  H       74.509    -888.307    -471.398
  H       66.692    -886.406    -473.607
  H       74.663    -889.071    -469.796
  P       73.831    -886.294    -466.092
  C       76.046    -886.208    -464.760
  O       75.430    -886.138    -466.042
  O       73.321    -887.502    -465.371
  O       73.318    -884.953    -465.369
  H       73.132    -885.150    -464.432
  H       77.104    -886.090    -464.866
  H       75.835    -887.158    -464.315
  H       75.661    -885.428    -464.136

 6  7  8  9  10  11  12  13  14  15  16  26  30  31  32  33  35 0
 6-311+G(2d,p)
 ****
 37  38 0
 6-311+G(2d,p)
 ****
 1  2  3  4  5  17  18  19  20  21  22  23  24  25 0
 3-21G
 ****
 27  28  29  34  36  39  40  41  42  43  44  45  46 0
 3-21G
 ****


