%nproc=1
%NoSave
%Mem=1900MB
#P OB98/GEN NMR

erre ene a

0 1
  C       23.792     -80.201     167.194
  O       24.705     -80.073     166.099
  P       25.471     -81.399     165.613
  C       27.634     -82.630     166.449
  O       26.801     -81.477     166.507
  C       29.022     -82.304     166.992
  O       29.761     -81.481     166.055
  C       29.012     -81.518     168.297
  O       28.659     -82.342     169.399
  C       30.440     -80.984     168.327
  O       31.343     -81.998     168.801
  C       30.708     -80.702     166.830
  N       30.629     -79.285     166.490
  C       31.851     -78.622     166.386
  O       32.938     -79.173     166.584
  N       31.782     -77.295     166.061
  C       30.640     -76.569     165.868
  O       30.643     -75.384     165.569
  C       29.381     -77.316     166.044
  C       29.430     -78.616     166.342
  O       25.984     -80.951     164.171
  O       24.604     -82.612     165.631
  H       26.232     -80.009     164.125
  H       31.102     -82.167     169.733
  H       32.657     -76.801     165.969
  H       28.452     -76.767     165.921
  H       28.512     -79.182     166.475
  H       31.701     -81.063     166.548
  H       30.551     -80.111     168.983
  H       28.306     -80.682     168.222
  H       29.567     -83.248     167.126
  H       27.724     -82.967     165.413
  H       27.161     -83.433     167.021
  P       27.147     -82.228     169.935
  C       25.946     -80.543     171.542
  O       27.042     -80.817     170.695
  O       27.158     -83.310     171.123
  O       26.115     -82.471     168.885
  H       27.958     -83.258     171.678
  H       26.221     -79.727     172.215
  H       25.672     -81.414     172.140
  H       25.092     -80.231     170.934
  H       23.357     -79.247     167.409
  H       24.317     -80.556     168.056
  H       23.020     -80.895     166.935

 3  4  5  6  7  8  9  10  11  12  13  24  28  29  30  31  32 0
 6-311+G(2d,p)
 ****
 33  34 0
 6-311+G(2d,p)
 ****
 1  2  14  15  16  17  18  19  20  21  22  23  25  26  27 0
 3-21G
 ****
 35  36  37  38  39  40  41  42  43  44  45 0
 3-21G
 ****


