%nproc=1
%NoSave
%Mem=1900MB
#P OB98/GEN NMR

erre ene a

0 1
  C      272.397    -125.015     -94.966
  O      271.833    -124.579     -96.189
  P      272.752    -123.637     -97.119
  C      272.379    -122.617     -99.494
  O      272.081    -123.656     -98.575
  C      271.943    -123.035    -100.901
  O      272.722    -124.164    -101.353
  C      270.481    -123.456    -101.004
  O      269.642    -122.315    -101.113
  C      270.503    -124.324    -102.256
  O      270.460    -123.514    -103.445
  C      271.858    -125.040    -102.122
  N      270.871    -129.945    -102.867
  C      270.685    -128.866    -103.712
  N      270.213    -129.136    -104.948
  N      270.945    -127.627    -103.374
  C      271.402    -127.503    -102.107
  C      271.608    -128.494    -101.171
  C      271.368    -129.860    -101.575
  O      271.604    -130.862    -100.901
  N      272.055    -127.978     -99.982
  C      272.141    -126.683    -100.206
  N      271.780    -126.343    -101.485
  O      274.088    -124.490     -97.290
  O      273.004    -122.267     -96.574
  H      269.672    -122.937    -103.415
  H      274.778    -124.185     -96.672
  H      270.670    -130.878    -103.190
  H      272.485    -125.954     -99.488
  H      272.337    -125.195    -103.097
  H      269.643    -124.995    -102.308
  H      269.969    -130.063    -105.268
  H      270.200    -124.065    -100.137
  H      270.069    -128.359    -105.577
  H      272.148    -122.199    -101.578
  H      273.456    -122.433     -99.491
  H      271.860    -121.701     -99.185
  P      268.094    -122.504    -100.734
  C      266.251    -121.013     -99.666
  O      267.568    -121.093    -100.178
  O      268.138    -123.435     -99.433
  O      267.263    -123.113    -101.811
  H      267.378    -124.046     -99.442
  H      266.225    -120.239     -98.895
  H      265.927    -121.962     -99.231
  H      265.570    -120.736    -100.474
  H      271.691    -125.629     -94.446
  H      272.643    -124.165     -94.364
  H      273.284    -125.581     -95.164

 3  4  5  6  7  8  9  10  11  12  23  26  30  31 0
 6-311+G(2d,p)
 ****
 33  35  36  37  38 0
 6-311+G(2d,p)
 ****
 1  2  13  14  15  16  17  18  19  20  21  22  24  25 0
 3-21G
 ****
 27  28  29  32  34  39  40  41  42  43  44  45  46  47  48  49 0
 3-21G
 ****


