%nproc=1
%NoSave
%Mem=1900MB
#P OB98/GEN NMR

erre ene a

0 1
  C     -600.415     261.557     468.812
  O     -599.322     260.947     468.134
  P     -599.613     260.283     466.701
  C     -597.037     260.238     466.214
  O     -598.263     259.521     466.293
  C     -595.928     259.489     466.962
  O     -596.218     259.450     468.386
  C     -595.781     258.032     466.546
  O     -595.144     257.919     465.285
  C     -594.989     257.484     467.718
  O     -593.591     257.801     467.584
  C     -595.586     258.262     468.907
  N     -596.525     257.475     469.709
  C     -595.940     256.521     470.557
  O     -594.726     256.338     470.622
  N     -596.811     255.785     471.310
  C     -598.170     255.879     471.284
  O     -598.902     255.202     471.996
  C     -598.728     256.859     470.335
  C     -597.892     257.604     469.601
  O     -599.632     261.579     465.763
  O     -600.856     259.459     466.678
  H     -598.999     262.267     466.044
  H     -593.523     258.770     467.636
  H     -596.410     255.107     471.943
  H     -599.805     256.942     470.268
  H     -598.278     258.329     468.886
  H     -594.786     258.612     469.568
  H     -595.075     256.387     467.804
  H     -596.760     257.546     466.499
  H     -594.993     260.026     466.814
  H     -597.151     261.236     466.652
  H     -596.775     260.378     465.163
  P     -596.023     257.316     464.078
  C     -595.422     258.985     462.145
  O     -595.250     257.707     462.719
  O     -597.283     258.302     464.100
  O     -596.347     255.875     464.239
  H     -597.050     259.235     464.196
  H     -594.586     259.176     461.464
  H     -595.435     259.765     462.910
  H     -596.357     259.014     461.568
  H     -600.078     261.955     469.746
  H     -601.177     260.827     468.989
  H     -600.812     262.348     468.210

 3  4  5  6  7  8  9  10  11  12  13  24  28  29  30  31  32 0
 6-311+G(2d,p)
 ****
 33  34 0
 6-311+G(2d,p)
 ****
 1  2  14  15  16  17  18  19  20  21  22  23  25  26  27 0
 3-21G
 ****
 35  36  37  38  39  40  41  42  43  44  45 0
 3-21G
 ****


