%nproc=1
%NoSave
%Mem=1900MB
#P OB98/GEN NMR

erre ene a

0 1
  C        2.394      54.059     322.382
  O        2.950      54.986     321.473
  H        3.020      54.026     323.278
  H        2.379      53.066     321.927
  H        1.380      54.354     322.669
  P        2.041      55.426     320.229
  C        2.406      53.103     319.139
  O        1.467      54.079     319.565
  C        1.776      52.182     318.091
  O        1.268      52.995     317.002
  C        2.754      51.163     317.495
  O        2.069      49.923     317.299
  C        3.117      51.767     316.149
  O        3.537      50.784     315.205
  C        1.822      52.476     315.778
  N        2.301      53.525     310.871
  C        1.968      52.342     311.504
  N        1.732      51.275     310.709
  N        1.872      52.216     312.801
  C        2.097      53.375     313.466
  C        2.441      54.605     312.960
  C        2.569      54.724     311.523
  O        2.885      55.737     310.905
  N        2.618      55.525     313.964
  C        2.384      54.849     315.073
  N        2.056      53.544     314.823
  O        3.114      55.944     319.158
  O        1.016      56.470     320.522
  H        3.899      51.257     314.426
  H        2.984      56.896     318.998
  H        2.372      53.562     309.869
  H        2.446      55.253     316.074
  H        1.088      51.795     315.329
  H        3.935      52.485     316.278
  H        1.741      51.309     309.703
  H        3.633      50.994     318.121
  H        1.450      50.406     311.148
  H        0.913      51.680     318.542
  H        2.722      52.511     320.002
  H        3.281      53.605     318.712
  P        2.159      48.843     318.482
  C        4.389      47.923     317.537
  O        3.701      48.431     318.673
  O        1.495      47.537     317.838
  O        1.452      49.256     319.731
  H        0.618      47.380     318.233
  H        5.399      47.691     317.806
  H        4.386      48.659     316.760
  H        3.900      47.037     317.191

 6  7  8  9  10  11  12  13  14  15  26  29  33  34 0
 6-311+G(2d,p)
 ****
 36  38  39  40  41 0
 6-311+G(2d,p)
 ****
 1  2  3  4  5  16  17  18  19  20  21  22  23  24  25 0
 3-21G
 ****
 27  28  30  31  32  35  37  42  43  44  45  46  47 0
 3-21G
 ****
 48  49 0
 3-21G
 ****


