%nproc=1
%NoSave
%Mem=1900MB
#P OB98/GEN NMR

erre ene a

0 1
  C      299.292     179.583     360.027
  O      298.155     179.006     360.671
  P      296.691     179.394     360.144
  C      296.674     181.468     361.673
  O      295.977     180.297     361.265
  C      295.763     182.386     362.486
  O      294.692     182.925     361.681
  C      295.073     181.681     363.645
  O      295.989     181.451     364.708
  C      293.944     182.652     363.959
  O      294.410     183.734     364.788
  C      293.574     183.179     362.552
  N      292.344     182.608     362.034
  C      291.200     183.402     362.155
  O      291.255     184.498     362.711
  N      290.015     182.920     361.651
  C      289.972     181.751     361.090
  N      288.770     181.334     360.610
  C      291.154     180.879     360.957
  C      292.292     181.360     361.451
  O      295.870     178.258     359.620
  O      297.005     180.462     358.985
  H      293.604     184.173     365.128
  H      296.300     180.407     358.311
  H      291.074     179.918     360.472
  H      293.212     180.786     361.397
  H      293.450     184.274     362.582
  H      293.128     182.163     364.499
  H      294.657     180.729     363.302
  H      296.369     183.224     362.864
  H      287.976     181.942     360.725
  H      297.047     181.999     360.792
  H      288.649     180.461     360.112
  H      297.555     181.170     362.257
  P      296.685     180.010     364.784
  C      295.443     179.012     366.833
  O      296.655     179.531     366.311
  O      298.233     180.349     364.537
  O      296.184     179.017     363.785
  H      298.653     179.613     364.051
  H      295.663     178.454     367.745
  H      294.959     178.343     366.120
  H      294.767     179.837     367.077
  H      300.186     179.225     360.494
  H      299.247     180.649     360.112
  H      299.294     179.307     358.993

 3  4  5  6  7  8  9  10  11  12  13  23  27  28  29  30  32 0
 6-311+G(2d,p)
 ****
 34  35 0
 6-311+G(2d,p)
 ****
 1  2  14  15  16  17  18  19  20  21  22  24  25  26 0
 3-21G
 ****
 31  33  36  37  38  39  40  41  42  43  44  45  46 0
 3-21G
 ****


