%nproc=1
%NoSave
%Mem=1900MB
#P OB98/GEN NMR

erre ene a

0 1
  C       -7.687     -88.234     119.449
  O       -9.084     -88.035     119.387
  H       -7.492     -89.173     119.972
  H       -7.210     -87.422     120.003
  H       -7.263     -88.301     118.444
  P       -9.637     -86.714     118.665
  C       -9.597     -87.725     116.280
  O       -9.022     -86.791     117.181
  C       -9.986     -87.031     114.979
  O      -11.096     -86.128     115.177
  C       -8.895     -86.164     114.362
  O       -7.849     -86.904     113.757
  C       -9.717     -85.390     113.348
  O      -10.017     -86.234     112.223
  C      -10.987     -85.080     114.174
  N      -10.939     -83.764     114.809
  C      -11.361     -82.678     114.034
  O      -11.739     -82.842     112.875
  N      -11.312     -81.417     114.578
  C      -10.859     -81.253     115.783
  N      -10.826     -79.982     116.269
  C      -10.386     -82.366     116.627
  C      -10.455     -83.580     116.086
  O       -9.408     -85.426     119.388
  O      -11.182     -87.025     118.389
  H      -10.610     -85.727     111.639
  H      -11.576     -86.232     117.951
  H       -9.990     -82.173     117.612
  H      -10.120     -84.449     116.643
  H      -11.885     -85.137     113.546
  H       -9.205     -84.507     112.962
  H       -8.495     -85.456     115.099
  H      -10.325     -87.808     114.281
  H      -11.156     -79.239     115.668
  H      -10.471     -88.172     116.763
  H      -10.419     -79.752     117.166
  H       -8.876     -88.515     116.048
  P       -6.412     -86.189     113.659
  C       -5.499     -87.434     115.765
  O       -5.805     -86.198     115.140
  O       -6.789     -84.658     113.399
  O       -5.496     -86.743     112.615
  H       -6.720     -84.441     112.449
  H       -5.106     -87.251     116.743
  H       -4.772     -87.959     115.181
  H       -6.388     -88.024     115.843

 6  7  8  9  10  11  12  13  14  15  16  26  30  31  32  33  35 0
 6-311+G(2d,p)
 ****
 37  38 0
 6-311+G(2d,p)
 ****
 1  2  3  4  5  17  18  19  20  21  22  23  24  25 0
 3-21G
 ****
 27  28  29  34  36  39  40  41  42  43  44  45  46 0
 3-21G
 ****


