%nproc=1
%NoSave
%Mem=1900MB
#P OB98/GEN NMR

erre ene a

0 1
  C     -126.401     358.687    -194.936
  O     -126.145     357.384    -195.422
  H     -125.529     359.327    -195.092
  H     -127.251     359.110    -195.482
  H     -126.649     358.651    -193.869
  P     -124.910     356.598    -194.774
  C     -122.450     356.402    -195.603
  O     -123.602     357.221    -195.469
  C     -121.359     357.178    -196.333
  O     -121.015     358.370    -195.587
  C     -120.058     356.401    -196.505
  O     -120.092     355.521    -197.611
  C     -119.080     357.539    -196.736
  O     -119.205     358.028    -198.083
  C     -119.582     358.591    -195.736
  N     -116.676     361.046    -192.309
  C     -117.180     361.431    -193.500
  N     -117.965     360.726    -194.342
  C     -118.223     359.508    -193.840
  C     -117.780     358.976    -192.640
  C     -116.964     359.805    -191.853
  N     -116.415     359.405    -190.650
  N     -118.236     357.682    -192.480
  C     -118.953     357.443    -193.561
  N     -118.951     358.502    -194.429
  O     -125.000     355.138    -195.425
  O     -124.862     356.570    -193.282
  H     -118.955     357.288    -198.677
  H     -124.433     354.512    -194.934
  H     -116.926     362.437    -193.817
  H     -119.487     356.524    -193.766
  H     -119.441     359.619    -196.096
  H     -118.035     357.234    -196.605
  H     -119.781     355.876    -195.582
  H     -121.754     357.499    -197.305
  H     -122.712     355.507    -196.181
  H     -115.726     360.014    -190.234
  H     -116.505     358.440    -190.377
  H     -122.099     356.104    -194.610
  P     -119.698     353.983    -197.346
  C     -117.617     352.741    -196.414
  O     -118.200     353.985    -196.777
  O     -119.534     353.398    -198.826
  O     -120.700     353.216    -196.543
  H     -119.790     352.457    -198.858
  H     -116.622     352.905    -196.055
  H     -117.586     352.099    -197.269
  H     -118.203     352.283    -195.645

 6  7  8  9  10  11  12  13  14  15  25  28  32  33  34  35 0
 6-311+G(2d,p)
 ****
 36  39  40 0
 6-311+G(2d,p)
 ****
 1  2  3  4  5  16  17  18  19  20  21  22  23  24 0
 3-21G
 ****
 26  27  29  30  31  37  38  41  42  43  44  45  46  47 0
 3-21G
 ****
 48 0
 3-21G
 ****


