%nproc=1
%NoSave
%Mem=1900MB
#P OB98/GEN NMR

erre ene a

0 1
  C      -18.472     354.707     365.331
  O      -19.077     354.167     364.179
  P      -19.127     354.911     362.766
  C      -21.533     355.890     363.084
  O      -20.665     355.060     362.325
  C      -22.946     355.907     362.479
  O      -23.820     356.655     363.368
  C      -22.959     356.626     361.114
  O      -23.771     355.992     360.131
  C      -23.314     358.058     361.490
  O      -23.824     358.828     360.414
  C      -24.267     357.854     362.670
  N      -24.447     362.886     363.325
  C      -24.634     362.153     362.169
  N      -24.697     362.861     361.020
  N      -24.719     360.845     362.147
  C      -24.519     360.274     363.357
  C      -24.331     360.895     364.567
  C      -24.271     362.345     364.586
  O      -24.001     363.025     365.575
  N      -24.100     359.988     365.580
  C      -24.123     358.823     364.970
  N      -24.345     358.942     363.618
  O      -18.139     354.473     361.737
  O      -18.750     356.428     363.186
  H      -24.179     359.654     360.786
  H      -18.239     356.816     362.443
  H      -24.302     363.891     363.269
  H      -23.956     357.860     365.462
  H      -25.288     357.668     362.328
  H      -22.387     358.556     361.823
  H      -24.486     363.850     360.991
  H      -21.954     356.614     360.663
  H      -24.581     362.344     360.147
  H      -23.331     354.886     362.412
  H      -21.100     356.889     363.070
  H      -21.567     355.553     364.132
  P      -23.323     355.023     358.947
  C      -22.480     357.051     357.610
  O      -23.263     355.864     357.589
  O      -24.571     354.051     358.709
  O      -22.090     354.211     359.230
  H      -24.264     353.147     358.527
  H      -22.742     357.663     356.743
  H      -21.421     356.794     357.553
  H      -22.676     357.626     358.524
  H      -18.572     354.017     366.143
  H      -18.950     355.630     365.586
  H      -17.434     354.884     365.139

 3  4  5  6  7  8  9  10  11  12  23  26  30  31 0
 6-311+G(2d,p)
 ****
 33  35  36  37  38 0
 6-311+G(2d,p)
 ****
 1  2  13  14  15  16  17  18  19  20  21  22  24  25 0
 3-21G
 ****
 27  28  29  32  34  39  40  41  42  43  44  45  46  47  48  49 0
 3-21G
 ****


