%nproc=1
%NoSave
%Mem=1900MB
#P OB98/GEN NMR

erre ene a

0 1
  C       50.958     -75.174      35.592
  O       50.495     -74.746      34.327
  H       52.026     -75.402      35.545
  H       50.801     -74.370      36.314
  H       50.401     -76.057      35.920
  P       50.610     -75.803      33.126
  C       52.329     -74.211      32.013
  O       52.030     -75.534      32.429
  C       53.714     -74.162      31.374
  O       54.731     -74.382      32.373
  C       53.959     -75.217      30.301
  O       53.387     -74.845      29.056
  C       55.479     -75.211      30.240
  O       55.930     -74.085      29.464
  C       55.857     -75.018      31.716
  N       59.314     -78.744      32.303
  C       59.341     -77.592      31.599
  N       58.390     -76.639      31.508
  C       57.326     -76.961      32.262
  C       57.161     -78.086      33.051
  C       58.216     -79.013      33.053
  N       58.149     -80.223      33.725
  N       55.925     -78.075      33.668
  C       55.349     -76.971      33.242
  N       56.158     -76.262      32.397
  O       49.549     -75.246      32.060
  O       50.328     -77.220      33.497
  H       56.882     -74.219      29.303
  H       48.710     -75.732      32.160
  H       60.245     -77.412      31.028
  H       54.353     -76.649      33.513
  H       56.720     -74.354      31.838
  H       55.894     -76.110      29.776
  H       53.617     -76.207      30.624
  H       53.862     -73.152      30.969
  H       52.308     -73.542      32.880
  H       58.705     -80.957      33.295
  H       57.219     -80.477      34.037
  H       51.569     -73.889      31.295
  P       52.824     -76.016      28.115
  C       54.818     -76.187      26.476
  O       54.106     -76.797      27.543
  O       52.269     -75.215      26.845
  O       51.764     -76.868      28.722
  H       51.329     -75.436      26.701
  H       55.642     -76.809      26.195
  H       55.184     -75.232      26.791
  H       54.165     -76.060      25.638

 6  7  8  9  10  11  12  13  14  15  25  28  32  33  34  35 0
 6-311+G(2d,p)
 ****
 36  39  40 0
 6-311+G(2d,p)
 ****
 1  2  3  4  5  16  17  18  19  20  21  22  23  24 0
 3-21G
 ****
 26  27  29  30  31  37  38  41  42  43  44  45  46  47  48 0
 3-21G
 ****


