%nproc=1
%NoSave
%Mem=1900MB
#P OB98/GEN NMR

erre ene a

0 1
  C      -34.933    -888.360     336.226
  O      -35.279    -889.050     335.034
  H      -34.117    -887.660     335.997
  H      -34.576    -889.070     336.979
  H      -35.790    -887.800     336.606
  P      -36.514    -890.070     335.125
  C      -35.311    -892.040     336.318
  O      -35.882    -891.550     335.109
  C      -34.725    -893.430     336.117
  O      -35.805    -894.350     335.765
  C      -33.673    -893.520     334.993
  O      -32.691    -894.490     335.403
  C      -34.451    -894.100     333.824
  O      -33.608    -894.720     332.862
  C      -35.382    -895.060     334.573
  N      -38.994    -898.540     334.141
  C      -38.025    -898.370     335.098
  N      -38.007    -899.270     336.123
  N      -37.135    -897.410     335.097
  C      -37.298    -896.560     334.030
  C      -38.211    -896.620     333.012
  C      -39.171    -897.710     333.038
  O      -40.027    -897.920     332.187
  N      -38.014    -895.590     332.109
  C      -36.985    -894.910     332.607
  N      -36.520    -895.470     333.763
  O      -37.184    -889.930     333.679
  O      -37.486    -889.800     336.223
  H      -32.743    -894.260     332.897
  H      -37.901    -889.270     333.697
  H      -39.643    -899.310     334.181
  H      -36.557    -894.040     332.154
  H      -34.866    -895.970     334.892
  H      -35.028    -893.300     333.333
  H      -38.690    -900.000     336.233
  H      -33.184    -892.580     334.760
  H      -37.332    -899.130     336.868
  H      -34.322    -893.790     337.085
  H      -36.100    -892.080     337.082
  H      -34.526    -891.360     336.650
  P      -31.520    -894.000     336.390
  C      -29.561    -894.780     334.846
  O      -30.224    -894.900     336.106
  O      -32.017    -894.540     337.835
  O      -31.301    -892.520     336.404
  H      -31.670    -893.980     338.534
  H      -28.723    -895.444     334.820
  H      -29.223    -893.773     334.715
  H      -30.241    -895.033     334.060

 6  7  8  9  10  11  12  13  14  15  26  29  33  34 0
 6-311+G(2d,p)
 ****
 36  38  39  40  41 0
 6-311+G(2d,p)
 ****
 1  2  3  4  5  16  17  18  19  20  21  22  23  24  25 0
 3-21G
 ****
 27  28  30  31  32  35  37  42  43  44  45  46  47 0
 3-21G
 ****
 48  49 0
 3-21G
 ****


