%nproc=1
%NoSave
%Mem=1900MB
#P OB98/GEN NMR

erre ene a

0 1
  C      703.133    -895.210     203.963
  O      701.910    -895.770     203.500
  P      701.476    -897.260     203.905
  C      699.317    -896.640     205.270
  O      700.631    -897.180     205.243
  C      698.912    -896.340     206.721
  O      699.678    -895.260     207.248
  C      697.431    -896.000     206.836
  O      696.656    -897.140     207.123
  C      697.442    -894.950     207.920
  O      697.473    -895.570     209.216
  C      698.767    -894.180     207.656
  N      698.778    -893.150     206.617
  C      698.124    -891.930     206.857
  O      697.568    -891.660     207.932
  N      698.142    -891.040     205.823
  C      698.784    -891.220     204.620
  O      698.573    -890.510     203.614
  C      699.642    -892.390     204.531
  C      699.592    -893.300     205.496
  O      702.878    -897.910     204.375
  O      700.821    -898.050     202.825
  H      697.270    -894.860     209.880
  H      703.246    -898.450     203.674
  H      697.571    -890.200     205.942
  H      700.280    -892.490     203.649
  H      700.203    -894.210     205.439
  H      699.151    -893.760     208.580
  H      696.521    -894.340     207.875
  H      697.086    -895.530     205.895
  H      699.135    -897.240     207.324
  H      698.607    -897.340     204.799
  H      699.301    -895.710     204.665
  P      695.231    -897.340     206.430
  C      696.085    -899.380     205.129
  O      695.550    -898.060     205.024
  O      694.383    -896.110     206.347
  O      694.544    -898.480     207.332
  H      693.936    -898.050     207.990
  H      696.082    -899.840     204.142
  H      695.506    -900.000     205.808
  H      697.135    -899.320     205.478
  H      703.236    -894.215     203.584
  H      703.951    -895.808     203.621
  H      703.132    -895.186     205.033

 3  4  5  6  7  8  9  10  11  12  13  23  28  29  30  31  32 0
 6-311+G(2d,p)
 ****
 33  34 0
 6-311+G(2d,p)
 ****
 1  2  14  15  16  17  18  19  20  21  22  24  25  26  27 0
 3-21G
 ****
 35  36  37  38  39  40  41  42  43  44  45 0
 3-21G
 ****


