%nproc=1
%NoSave
%Mem=1900MB
#P OB98/GEN NMR

erre ene a

0 1
  C      -98.355     287.043     -61.386
  O      -98.833     285.903     -62.069
  H      -98.561     287.928     -61.992
  H      -97.274     286.962     -61.240
  H      -98.853     287.150     -60.420
  P      -98.709     284.496     -61.308
  C      -96.550     283.917     -62.624
  O      -97.152     284.094     -61.350
  C      -95.330     283.003     -62.524
  O      -95.765     281.689     -62.061
  C      -94.581     282.798     -63.850
  O      -93.180     282.683     -63.555
  C      -95.081     281.439     -64.314
  O      -94.193     280.819     -65.243
  C      -95.202     280.724     -62.971
  N      -96.120     276.277     -60.798
  C      -95.259     277.292     -60.432
  N      -94.525     277.093     -59.317
  N      -95.125     278.405     -61.103
  C      -95.946     278.483     -62.182
  C      -96.836     277.550     -62.651
  C      -96.956     276.309     -61.913
  O      -97.689     275.366     -62.198
  N      -97.461     277.991     -63.793
  C      -96.947     279.189     -64.009
  N      -96.025     279.532     -63.057
  O      -99.390     283.477     -62.337
  O      -99.347     284.439     -59.959
  H      -93.293     280.835     -64.851
  H     -100.334     283.360     -62.123
  H      -96.175     275.434     -60.251
  H      -97.202     279.843     -64.833
  H      -94.227     280.404     -62.578
  H      -96.062     281.542     -64.796
  H      -94.608     276.284     -58.723
  H      -94.741     283.592     -64.585
  H      -93.917     277.846     -59.009
  H      -94.658     283.398     -61.750
  H      -96.236     284.893     -63.008
  H      -97.285     283.483     -63.313
  P      -92.235     283.929     -63.898
  C      -91.365     282.686     -66.010
  O      -91.899     283.882     -65.464
  O      -90.842     283.514     -63.224
  O      -92.731     285.238     -63.379
  H      -90.343     284.314     -62.980
  H      -91.197     282.816     -67.059
  H      -92.056     281.884     -65.856
  H      -90.439     282.456     -65.527

 6  7  8  9  10  11  12  13  14  15  26  29  33  34 0
 6-311+G(2d,p)
 ****
 36  38  39  40  41 0
 6-311+G(2d,p)
 ****
 1  2  3  4  5  16  17  18  19  20  21  22  23  24  25 0
 3-21G
 ****
 27  28  30  31  32  35  37  42  43  44  45  46  47 0
 3-21G
 ****
 48  49 0
 3-21G
 ****


