%nproc=1
%NoSave
%Mem=1900MB
#P OB98/GEN NMR

erre ene a

0 1
  C     -123.903     451.829    1039.455
  O     -123.465     450.639    1038.818
  P     -121.917     450.368    1038.495
  C     -121.595     448.063    1039.682
  O     -121.706     448.763    1038.432
  C     -121.832     446.553    1039.530
  O     -123.190     446.298    1039.107
  C     -120.924     445.984    1038.422
  O     -119.593     445.624    1038.716
  C     -121.765     444.871    1037.766
  O     -121.424     443.585    1038.259
  C     -123.196     445.246    1038.153
  N     -124.804     444.022    1033.481
  C     -124.189     443.221    1034.430
  N     -123.792     442.011    1033.996
  N     -123.972     443.598    1035.658
  C     -124.336     444.885    1035.901
  C     -124.967     445.778    1035.073
  C     -125.237     445.320    1033.719
  O     -125.703     446.038    1032.815
  N     -125.130     447.007    1035.637
  C     -124.555     446.887    1036.826
  N     -124.030     445.629    1037.027
  O     -120.917     451.205    1039.212
  O     -121.854     450.766    1036.928
  H     -122.050     442.924    1037.897
  H     -120.976     451.158    1036.752
  H     -124.868     443.706    1032.537
  H     -124.463     447.677    1037.559
  H     -123.697     444.392    1038.634
  H     -121.578     444.841    1036.696
  H     -123.810     441.743    1033.011
  H     -120.838     446.755    1037.655
  H     -123.188     441.458    1034.625
  H     -121.730     446.033    1040.497
  H     -122.332     448.512    1040.367
  H     -120.610     448.229    1040.104
  P     -118.383     445.480    1037.667
  C     -117.792     447.977    1037.863
  O     -117.324     446.629    1037.963
  O     -119.043     445.950    1036.255
  O     -117.816     444.101    1037.535
  H     -118.528     445.584    1035.511
  H     -116.933     448.644    1037.776
  H     -118.367     448.221    1038.753
  H     -118.425     448.090    1036.980
  H     -124.966     451.801    1039.572
  H     -123.632     452.674    1038.857
  H     -123.441     451.910    1040.417

 3  4  5  6  7  8  9  10  11  12  23  26  30  31 0
 6-311+G(2d,p)
 ****
 33  35  36  37  38 0
 6-311+G(2d,p)
 ****
 1  2  13  14  15  16  17  18  19  20  21  22  24  25 0
 3-21G
 ****
 27  28  29  32  34  39  40  41  42  43  44  45  46  47  48  49 0
 3-21G
 ****


