%nproc=1
%NoSave
%Mem=1900MB
#P OB98/GEN NMR

erre ene a

0 1
  C      -37.399     278.150      79.863
  O      -37.906     278.409      81.156
  H      -38.240     278.016      79.178
  H      -36.799     277.236      79.862
  H      -36.796     278.993      79.514
  P      -36.866     278.603      82.358
  C      -35.330     277.000      83.680
  O      -36.488     277.127      82.866
  C      -35.341     275.662      84.414
  O      -35.797     274.613      83.535
  C      -33.976     275.221      84.938
  O      -33.680     275.866      86.167
  C      -34.211     273.730      85.103
  O      -34.984     273.490      86.297
  C      -35.057     273.403      83.859
  N      -32.142     269.799      81.788
  C      -32.635     269.908      83.074
  N      -32.276     268.936      83.939
  N      -33.399     270.892      83.479
  C      -33.620     271.825      82.527
  C      -33.171     271.836      81.226
  C      -32.380     270.711      80.770
  O      -31.945     270.563      79.633
  N      -33.519     272.998      80.584
  C      -34.221     273.665      81.481
  N      -34.303     272.999      82.682
  O      -37.293     279.529      83.455
  O      -35.523     279.098      81.643
  H      -34.530     273.941      87.031
  H      -35.480     280.072      81.611
  H      -31.550     269.024      81.537
  H      -34.694     274.625      81.313
  H      -35.788     272.612      84.054
  H      -33.284     273.162      85.202
  H      -31.573     268.241      83.730
  H      -33.189     275.375      84.193
  H      -32.579     269.031      84.903
  H      -36.071     275.734      85.232
  H      -35.340     277.828      84.396
  H      -34.423     277.079      83.070
  P      -32.203     275.827      86.800
  C      -30.687     273.908      87.643
  O      -32.001     274.320      87.317
  O      -31.933     276.875      87.821
  O      -31.230     275.880      85.536
  H      -31.048     276.800      85.227
  H      -30.703     272.889      87.970
  H      -30.303     274.528      88.426
  H      -30.061     273.995      86.779

 6  7  8  9  10  11  12  13  14  15  26  29  33  34 0
 6-311+G(2d,p)
 ****
 36  38  39  40  41 0
 6-311+G(2d,p)
 ****
 1  2  3  4  5  16  17  18  19  20  21  22  23  24  25 0
 3-21G
 ****
 27  28  30  31  32  35  37  42  43  44  45  46  47 0
 3-21G
 ****
 48  49 0
 3-21G
 ****


