%nproc=1
%NoSave
%Mem=1900MB
#P OB98/GEN NMR

erre ene a

0 1
  C       61.725    1470.293     174.137
  O       61.212    1469.703     172.962
  H       61.157    1469.909     174.992
  H       61.620    1471.375     174.107
  H       62.777    1470.016     174.272
  P       61.735    1470.221     171.535
  C       63.187    1468.287     170.695
  O       63.185    1469.540     171.359
  C       64.605    1467.804     170.410
  O       65.277    1468.736     169.522
  C       65.478    1467.664     171.667
  O       66.170    1466.412     171.644
  C       66.471    1468.816     171.553
  O       67.670    1468.572     172.282
  C       66.610    1468.921     170.028
  N       67.170    1470.198     169.595
  C       68.575    1470.248     169.465
  O       69.264    1469.260     169.737
  N       69.148    1471.421     169.064
  C       68.414    1472.465     168.865
  N       69.051    1473.610     168.477
  C       66.949    1472.475     169.036
  C       66.404    1471.306     169.399
  O       61.712    1471.710     171.370
  O       60.840    1469.440     170.469
  H       67.925    1467.631     172.148
  H       60.863    1469.921     169.600
  H       66.387    1473.377     168.871
  H       65.325    1471.227     169.542
  H       67.243    1468.114     169.637
  H       66.008    1469.731     171.948
  H       64.913    1467.728     172.596
  H       64.549    1466.850     169.871
  H       70.059    1473.560     168.360
  H       62.629    1468.385     169.754
  H       68.582    1474.476     168.291
  H       62.686    1467.555     171.345
  P       65.427    1465.182     172.368
  C       64.526    1464.083     170.198
  O       64.210    1464.720     171.427
  O       64.702    1465.883     173.610
  O       66.355    1464.096     172.799
  H       65.224    1465.725     174.428
  H       63.622    1463.834     169.683
  H       65.083    1463.190     170.392
  H       65.111    1464.744     169.593

 6  7  8  9  10  11  12  13  14  15  16  26  30  31  32  33  35 0
 6-311+G(2d,p)
 ****
 37  38 0
 6-311+G(2d,p)
 ****
 1  2  3  4  5  17  18  19  20  21  22  23  24  25 0
 3-21G
 ****
 27  28  29  34  36  39  40  41  42  43  44  45  46 0
 3-21G
 ****


