%nproc=1
%NoSave
%Mem=1900MB
#P OB98/GEN NMR

erre ene a

0 1
  C      383.975     -39.858    -318.244
  O      384.909     -39.580    -317.221
  H      383.805     -40.938    -318.284
  H      384.366     -39.528    -319.211
  H      383.025     -39.358    -318.036
  P      385.267     -38.039    -316.966
  C      387.754     -38.548    -317.540
  O      386.608     -37.745    -317.803
  C      389.010     -37.681    -317.574
  O      390.162     -38.488    -317.236
  C      389.321     -37.084    -318.946
  O      388.524     -35.943    -319.218
  C      390.804     -36.770    -318.803
  O      391.017     -35.516    -318.143
  C      391.304     -37.920    -317.913
  N      395.772     -39.231    -319.994
  C      395.406     -38.178    -319.229
  N      394.192     -37.909    -318.699
  C      393.315     -38.877    -319.018
  C      393.541     -40.004    -319.790
  C      394.845     -40.169    -320.293
  N      395.210     -41.224    -321.096
  N      392.376     -40.736    -319.930
  C      391.468     -40.068    -319.252
  N      391.992     -38.944    -318.677
  O      385.758     -38.029    -315.443
  O      384.149     -37.078    -317.203
  H      391.971     -35.313    -318.230
  H      385.014     -37.792    -314.860
  H      396.189     -37.449    -319.024
  H      390.424     -40.351    -319.154
  H      391.999     -37.572    -317.139
  H      391.296     -36.711    -319.776
  H      389.193     -37.841    -319.729
  H      388.914     -36.893    -316.820
  H      387.834     -39.328    -318.308
  H      387.640     -39.019    -316.561
  H      396.155     -41.268    -321.439
  H      394.499     -41.873    -321.413
  P      387.457     -36.023    -320.412
  C      389.001     -34.502    -321.854
  O      388.236     -35.694    -321.779
  O      386.544     -34.732    -320.173
  O      386.652     -37.282    -320.447
  H      385.707     -34.988    -319.733
  H      389.454     -34.429    -322.821
  H      389.763     -34.520    -321.104
  H      388.363     -33.658    -321.694

 6  7  8  9  10  11  12  13  14  15  25  28  32  33  34  35 0
 6-311+G(2d,p)
 ****
 36  37  40 0
 6-311+G(2d,p)
 ****
 1  2  3  4  5  16  17  18  19  20  21  22  23  24 0
 3-21G
 ****
 26  27  29  30  31  38  39 41  42  43  44  45  46  47  48 0
 3-21G
 ****


