%nproc=1
%NoSave
%Mem=1900MB
#P OB98/GEN NMR

erre ene a

0 1
  C     -437.782    -861.436      63.979
  O     -436.885    -861.810      62.947
  H     -437.418    -860.506      64.432
  H     -437.817    -862.216      64.758
  H     -438.778    -861.266      63.568
  P     -437.220    -863.181      62.180
  C     -434.805    -864.007      61.823
  O     -435.946    -863.426      61.222
  C     -433.670    -864.151      60.808
  O     -434.114    -864.982      59.716
  C     -433.230    -862.803      60.207
  O     -431.805    -862.815      60.021
  C     -433.902    -862.781      58.846
  O     -433.217    -861.961      57.905
  C     -433.928    -864.270      58.481
  N     -435.357    -863.910      53.598
  C     -434.192    -863.640      54.220
  N     -433.886    -863.782      55.510
  C     -434.935    -864.294      56.209
  C     -436.194    -864.620      55.710
  C     -436.382    -864.390      54.337
  N     -437.577    -864.637      53.702
  N     -437.012    -865.068      56.733
  C     -436.260    -865.044      57.809
  N     -435.006    -864.571      57.544
  O     -438.549    -863.242      61.501
  O     -436.987    -864.276      63.331
  H     -433.675    -862.034      57.043
  H     -436.174    -864.087      63.841
  H     -433.386    -863.257      53.570
  H     -436.569    -865.348      58.810
  H     -432.981    -864.600      58.023
  H     -434.919    -862.399      58.962
  H     -433.512    -861.962      60.829
  H     -432.828    -864.665      61.284
  H     -435.053    -865.004      62.223
  H     -437.651    -864.465      52.705
  H     -438.369    -865.002      54.231
  H     -434.497    -863.374      62.657
  P     -430.900    -862.174      61.170
  C     -428.693    -861.312      60.104
  O     -429.345    -862.400      60.791
  O     -431.250    -862.513      62.571
  O     -431.074    -860.585      60.905
  H     -431.095    -860.128      61.772
  H     -427.675    -861.574      59.907
  H     -428.723    -860.435      60.716
  H     -429.197    -861.120      59.180

 6  7  8  9  10  11  12  13  14  15  25  28  32  33  34  35 0
 6-311+G(2d,p)
 ****
 36  39  40 0
 6-311+G(2d,p)
 ****
 1  2  3  4  5  16  17  18  19  20  21  22  23  24 0
 3-21G
 ****
 26  27  29  30  31  37  38  41  42  43  44  45  46  47 0
 3-21G
 ****
 48 0
 3-21G
 ****


