%nproc=1
%NoSave
%Mem=1900MB
#P OB98/GEN NMR

erre ene a

0 1
  C     -769.664    -477.926    -512.402
  O     -768.742    -478.352    -511.418
  H     -770.094    -476.972    -512.090
  H     -770.470    -478.660    -512.501
  H     -769.159    -477.795    -513.366
  P     -767.867    -479.651    -511.760
  C     -768.208    -480.636    -509.344
  O     -767.304    -480.224    -510.365
  C     -767.872    -482.059    -508.893
  O     -767.925    -482.977    -509.990
  C     -766.455    -482.213    -508.356
  O     -766.282    -481.606    -507.093
  C     -766.338    -483.727    -508.330
  O     -767.000    -484.286    -507.191
  C     -767.080    -484.111    -509.641
  N     -766.170    -484.472    -510.718
  C     -766.105    -485.837    -511.028
  O     -766.795    -486.647    -510.412
  N     -765.226    -486.240    -512.002
  C     -764.505    -485.367    -512.630
  N     -763.652    -485.836    -513.584
  C     -764.562    -483.917    -512.357
  C     -765.399    -483.547    -511.384
  O     -766.564    -479.026    -512.435
  O     -768.561    -480.684    -512.583
  H     -766.841    -485.251    -507.227
  H     -766.133    -478.344    -511.899
  H     -763.950    -483.222    -512.908
  H     -765.502    -482.505    -511.121
  H     -767.755    -484.966    -509.460
  H     -765.294    -484.053    -508.289
  H     -765.732    -481.826    -509.083
  H     -768.621    -482.363    -508.151
  H     -763.625    -486.839    -513.732
  H     -769.245    -480.573    -509.693
  H     -763.015    -485.254    -514.110
  H     -768.096    -479.939    -508.503
  P     -765.315    -480.335    -506.926
  C     -764.268    -481.608    -504.944
  O     -764.785    -480.363    -505.411
  O     -765.899    -479.027    -507.356
  O     -764.002    -480.758    -507.743
  H     -763.562    -481.568    -507.423
  H     -763.948    -481.503    -503.928
  H     -763.437    -481.899    -505.551
  H     -765.031    -482.355    -505.002

 6  7  8  9  10  11  12  13  14  15  16  26  30  31  32  33  35 0
 6-311+G(2d,p)
 ****
 37  38 0
 6-311+G(2d,p)
 ****
 1  2  3  4  5  17  18  19  20  21  22  23  24  25 0
 3-21G
 ****
 27  28  29  34  36  39  40  41  42  43  44  45  46 0
 3-21G
 ****


