%nproc=1
%NoSave
%Mem=1900MB
#P OB98/GEN NMR

erre ene a

0 1
  C       -3.185     -73.981     211.997
  O       -3.935     -72.824     211.631
  P       -4.266     -72.587     210.080
  C       -6.568     -73.753     210.063
  O       -5.229     -73.770     209.577
  C       -7.541     -73.323     208.950
  O       -7.603     -74.372     207.946
  C       -8.989     -73.099     209.405
  O       -9.360     -71.800     209.864
  C       -9.753     -73.335     208.106
  O       -9.747     -72.132     207.312
  C       -8.938     -74.416     207.398
  N      -12.207     -77.845     205.454
  C      -11.859     -76.600     205.059
  N      -10.980     -75.754     205.631
  C      -10.424     -76.306     206.720
  C      -10.678     -77.567     207.244
  C      -11.621     -78.354     206.566
  N      -11.984     -79.614     206.976
  N       -9.922     -77.784     208.379
  C       -9.238     -76.666     208.544
  N       -9.496     -75.750     207.562
  O       -3.096     -72.293     209.198
  O       -5.267     -71.332     210.126
  H      -10.348     -71.501     207.756
  H       -5.086     -70.753     209.361
  H      -12.352     -76.236     204.160
  H       -8.553     -76.479     209.362
  H       -8.855     -74.237     206.321
  H      -10.801     -73.590     208.276
  H       -9.281     -73.851     210.149
  H       -7.156     -72.413     208.468
  H       -6.643     -73.061     210.905
  H      -12.701     -80.098     206.455
  H      -11.601     -79.991     207.832
  H       -6.791     -74.752     210.447
  P       -9.811     -71.548     211.382
  C       -7.598     -70.233     211.850
  O       -8.455     -71.296     212.201
  O      -10.696     -72.599     211.960
  O      -10.465     -70.091     211.313
  H       -9.832     -69.374     211.138
  H       -6.859     -70.098     212.645
  H       -8.159     -69.302     211.728
  H       -7.073     -70.470     210.919
  H       -3.048     -73.996     213.058
  H       -2.230     -73.955     211.515
  H       -3.714     -74.860     211.693

 3  4  5  6  7  8  9  10  11  12  22  25  29  30  31  32 0
 6-311+G(2d,p)
 ****
 33  36  37 0
 6-311+G(2d,p)
 ****
 1  2  13  14  15  16  17  18  19  20  21  23  24  26 0
 3-21G
 ****
 27  28  34  35  38  39  40  41  42  43  44  45  46  47  48 0
 3-21G
 ****


