%nproc=1
%NoSave
%Mem=1900MB
#P OB98/GEN NMR

erre ene a

0 1
  C     -152.740       8.968    -110.016
  O     -153.524       9.950    -110.666
  H     -153.220       8.700    -109.070
  H     -151.739       9.362    -109.802
  H     -152.662       8.073    -110.641
  P     -152.944      10.521    -112.049
  C     -152.039      12.624    -110.835
  O     -151.739      11.510    -111.663
  C     -151.333      13.878    -111.348
  O     -151.913      15.067    -110.768
  C     -149.838      13.925    -111.044
  O     -149.100      13.196    -112.009
  C     -149.568      15.421    -111.105
  O     -149.436      15.867    -112.475
  C     -150.839      16.002    -110.463
  N     -149.985      19.438    -106.860
  C     -149.910      19.550    -108.234
  N     -149.527      20.749    -108.726
  N     -150.181      18.573    -109.060
  C     -150.496      17.415    -108.432
  C     -150.601      17.174    -107.080
  C     -150.354      18.283    -106.178
  O     -150.486      18.268    -104.956
  N     -150.963      15.874    -106.832
  C     -151.046      15.320    -108.027
  N     -150.762      16.214    -109.033
  O     -154.095      11.519    -112.552
  O     -152.632       9.493    -113.086
  H     -150.259      15.665    -112.953
  H     -154.167      11.449    -113.522
  H     -149.798      20.231    -106.274
  H     -151.309      14.290    -108.222
  H     -151.116      16.965    -110.909
  H     -148.634      15.684    -110.605
  H     -149.038      21.425    -108.158
  H     -149.631      13.561    -110.029
  H     -149.400      20.805    -109.729
  H     -151.504      13.934    -112.430
  H     -151.706      12.409    -109.817
  H     -153.124      12.789    -110.832
  P     -147.768      12.438    -111.533
  C     -146.306      14.318    -112.568
  O     -146.592      13.528    -111.424
  O     -147.365      11.582    -112.828
  O     -147.945      11.561    -110.338
  H     -147.581      10.638    -112.676
  H     -145.506      14.993    -112.345
  H     -147.177      14.876    -112.843
  H     -146.020      13.681    -113.379

 6  7  8  9  10  11  12  13  14  15  26  29  33  34 0
 6-311+G(2d,p)
 ****
 36  38  39  40  41 0
 6-311+G(2d,p)
 ****
 1  2  3  4  5  16  17  18  19  20  21  22  23  24  25 0
 3-21G
 ****
 27  28  30  31  32  35  37  42  43  44  45  46  47 0
 3-21G
 ****
 48  49 0
 3-21G
 ****


