%nproc=1
%NoSave
%Mem=1900MB
#P OB98/GEN NMR

erre ene a

0 1
  C      475.020     226.043     302.637
  O      476.143     225.369     302.092
  P      477.368     225.045     303.084
  C      478.300     227.477     303.013
  O      478.529     226.099     302.729
  C      479.404     228.327     302.396
  O      480.686     227.983     302.957
  C      479.568     228.144     300.888
  O      478.623     228.901     300.146
  C      480.970     228.706     300.677
  O      480.930     230.142     300.637
  C      481.696     228.219     301.942
  N      486.154     226.350     300.441
  C      485.793     227.652     300.724
  N      486.735     228.598     300.528
  N      484.611     228.001     301.170
  C      483.763     226.949     301.323
  C      484.005     225.614     301.077
  C      485.307     225.251     300.577
  O      485.677     224.120     300.253
  N      482.910     224.847     301.354
  C      481.999     225.710     301.768
  N      482.455     226.998     301.720
  O      477.943     223.665     302.517
  O      476.992     224.944     304.516
  H      480.442     230.428     301.434
  H      478.500     223.233     303.184
  H      487.078     226.131     300.103
  H      480.993     225.455     302.085
  H      482.381     228.982     302.330
  H      481.417     228.369     299.739
  H      487.639     228.403     300.126
  H      479.553     227.087     300.613
  H      486.484     229.568     300.663
  H      479.187     229.376     302.631
  H      478.281     227.621     304.092
  H      477.325     227.765     302.607
  P      477.754     228.098     299.054
  C      479.798     227.492     297.566
  O      478.585     228.208     297.691
  O      476.485     229.054     298.821
  O      477.357     226.718     299.471
  H      475.726     228.533     298.523
  H      480.080     227.473     296.511
  H      479.676     226.461     297.919
  H      480.589     227.991     298.129
  H      474.287     226.192     301.871
  H      475.327     226.991     303.026
  H      474.598     225.454     303.424

 3  4  5  6  7  8  9  10  11  12  23  26  30  31 0
 6-311+G(2d,p)
 ****
 33  35  36  37  38 0
 6-311+G(2d,p)
 ****
 1  2  13  14  15  16  17  18  19  20  21  22  24  25 0
 3-21G
 ****
 27  28  29  32  34  39  40  41  42  43  44  45  46  47  48  49 0
 3-21G
 ****


