%nproc=1
%NoSave
%Mem=1900MB
#P OB98/GEN NMR

erre ene a

0 1
  C      110.354     -83.984     -17.847
  O      110.673     -84.089     -19.240
  P      109.600     -83.518     -20.285
  C      109.717     -83.483     -22.893
  O      109.824     -84.249     -21.697
  C      110.439     -84.191     -24.042
  O      111.844     -84.340     -23.753
  C      109.931     -85.600     -24.294
  O      108.713     -85.569     -25.008
  C      111.090     -86.222     -25.071
  O      110.937     -86.030     -26.489
  C      112.321     -85.452     -24.536
  N      113.222     -86.298     -23.770
  C      114.242     -86.917     -24.494
  O      114.334     -86.752     -25.712
  N      115.125     -87.728     -23.823
  C      114.976     -87.925     -22.543
  N      115.879     -88.743     -21.933
  C      113.892     -87.309     -21.749
  C      113.061     -86.519     -22.420
  O      110.109     -82.026     -20.559
  O      108.192     -83.544     -19.781
  H      111.754     -86.375     -26.889
  H      109.350     -81.439     -20.729
  H      113.801     -87.510     -20.689
  H      112.231     -86.028     -21.916
  H      112.890     -85.025     -25.374
  H      111.143     -87.306     -24.907
  H      109.800     -86.134     -23.337
  H      110.331     -83.584     -24.952
  H      116.605     -89.146     -22.507
  H      110.139     -82.485     -22.742
  H      115.852     -88.968     -20.945
  H      108.649     -83.341     -23.125
  P      107.385     -86.023     -24.247
  C      104.869     -85.939     -24.784
  O      106.171     -85.525     -25.174
  O      107.317     -84.981     -23.027
  O      107.314     -87.441     -23.769
  H      106.591     -85.217     -22.418
  H      104.133     -85.364     -25.368
  H      104.714     -85.740     -23.726
  H      104.735     -87.001     -24.994
  H      111.150     -84.400     -17.266
  H      109.449     -84.519     -17.647
  H      110.224     -82.954     -17.587

 3  4  5  6  7  8  9  10  11  12  13  21  23  27  28  29  30  32 0
 6-311+G(2d,p)
 ****
 34  35 0
 6-311+G(2d,p)
 ****
 1  2  14  15  16  17  18  19  20  22  24  25  26 0
 3-21G
 ****
 31  33  36  37  38  39  40  41  42  43  44  45  46 0
 3-21G
 ****


