%nproc=1
%NoSave
%Mem=1900MB
#P OB98/GEN NMR

erre ene a

0 1
  C     1073.619     497.234    -563.305
  O     1073.708     495.865    -563.728
  P     1072.528     494.850    -563.335
  C     1072.816     492.962    -565.121
  O     1072.921     493.348    -563.759
  C     1074.110     493.255    -565.890
  O     1075.254     492.694    -565.180
  C     1074.137     492.700    -567.317
  O     1074.914     493.618    -568.114
  C     1074.899     491.389    -567.141
  O     1075.449     490.893    -568.341
  C     1075.942     491.830    -566.109
  N     1076.570     490.726    -565.390
  C     1077.762     490.211    -565.912
  O     1078.284     490.580    -566.954
  N     1078.341     489.195    -565.189
  C     1077.839     488.632    -564.035
  O     1078.392     487.703    -563.444
  C     1076.570     489.193    -563.550
  C     1076.017     490.196    -564.243
  O     1071.396     495.219    -564.408
  O     1071.988     495.006    -561.940
  H     1076.049     491.578    -568.695
  H     1070.541     495.294    -563.967
  H     1079.204     488.827    -565.542
  H     1076.151     488.787    -562.648
  H     1075.078     490.636    -563.896
  H     1076.709     492.429    -566.593
  H     1074.216     490.627    -566.753
  H     1073.143     492.571    -567.753
  H     1074.242     494.355    -565.899
  H     1071.980     493.511    -565.590
  H     1072.578     491.888    -565.165
  P     1074.126     494.614    -569.114
  C     1075.411     496.891    -568.962
  O     1075.203     495.674    -569.632
  O     1073.285     495.466    -568.040
  O     1073.288     493.937    -570.129
  H     1073.811     495.737    -567.278
  H     1075.416     496.750    -567.874
  H     1074.646     497.601    -569.231
  H     1076.374     497.291    -569.255
  H     1074.480     497.770    -563.647
  H     1073.575     497.275    -562.237
  H     1072.736     497.678    -563.716

 3  4  5  6  7  8  9  10  11  12  13  23  28  29  30  31  32 0
 6-311+G(2d,p)
 ****
 33  34 0
 6-311+G(2d,p)
 ****
 1  2  14  15  16  17  18  19  20  21  22  24  25  26 0
 3-21G
 ****
 27  35  36  37  38  39  40  41  42  43  44  45 0
 3-21G
 ****


