%nproc=1
%NoSave
%Mem=1900MB
#P OB98/GEN NMR

erre ene a

0 1
  C      512.857    -639.340    -252.339
  O      512.426    -640.568    -251.735
  P      513.121    -641.019    -250.362
  C      511.610    -643.100    -250.736
  O      512.751    -642.556    -250.095
  C      511.957    -644.430    -251.416
  O      512.686    -644.225    -252.645
  C      512.841    -645.336    -250.562
  O      512.078    -646.076    -249.627
  C      513.413    -646.260    -251.621
  O      512.449    -647.288    -251.950
  C      513.629    -645.323    -252.806
  N      518.304    -646.202    -254.538
  C      517.153    -646.969    -254.653
  N      517.256    -648.124    -255.333
  N      515.987    -646.613    -254.145
  C      516.034    -645.414    -253.506
  C      517.115    -644.576    -253.312
  C      518.384    -644.986    -253.870
  O      519.436    -644.368    -253.785
  N      516.760    -643.460    -252.615
  C      515.465    -643.618    -252.370
  N      514.985    -644.793    -252.886
  O      512.251    -640.247    -249.256
  O      514.569    -640.679    -250.256
  H      512.809    -647.776    -252.717
  H      512.799    -640.071    -248.467
  H      519.167    -646.532    -254.942
  H      514.847    -642.904    -251.848
  H      513.415    -645.806    -253.770
  H      514.323    -646.783    -251.272
  H      518.106    -648.431    -255.798
  H      513.654    -644.764    -250.073
  H      516.414    -648.678    -255.463
  H      511.022    -644.958    -251.649
  H      511.220    -642.401    -251.487
  H      510.807    -643.229    -250.001
  P      512.075    -645.587    -248.092
  C      509.831    -646.631    -247.306
  O      511.245    -646.682    -247.278
  O      511.107    -644.313    -248.135
  O      513.426    -645.246    -247.550
  H      511.399    -643.660    -247.462
  H      509.444    -647.544    -246.838
  H      509.462    -646.594    -248.339
  H      509.469    -645.758    -246.756
  H      512.307    -639.174    -253.242
  H      513.901    -639.400    -252.564
  H      512.684    -638.530    -251.662

 3  4  5  6  7  8  9  10  11  12  23  26  30  31 0
 6-311+G(2d,p)
 ****
 33  35  36  37  38 0
 6-311+G(2d,p)
 ****
 1  2  13  14  15  16  17  18  19  20  21  22  24  25 0
 3-21G
 ****
 27  28  29  32  34  39  40  41  42  43  44  45  46  47  48  49 0
 3-21G
 ****


