%nproc=1
%NoSave
%Mem=1900MB
#P OB98/GEN NMR

erre ene a

0 1
  C      -66.821      -7.168      -4.960
  O      -66.859      -8.467      -4.403
  H      -67.563      -7.107      -5.760
  H      -65.832      -6.974      -5.382
  H      -67.056      -6.416      -4.202
  P      -65.990      -8.708      -3.076
  C      -63.485      -8.393      -2.475
  O      -64.451      -8.548      -3.504
  C      -62.244      -9.224      -2.788
  O      -61.786      -8.956      -4.132
  C      -61.057      -8.947      -1.872
  O      -61.157      -9.663      -0.648
  C      -59.916      -9.474      -2.726
  O      -59.890     -10.916      -2.666
  C      -60.332      -9.009      -4.127
  N      -56.945      -6.549      -6.986
  C      -57.181      -7.905      -6.858
  N      -56.395      -8.724      -7.589
  N      -58.099      -8.415      -6.080
  C      -58.802      -7.478      -5.400
  C      -58.664      -6.108      -5.444
  C      -57.650      -5.558      -6.314
  O      -57.415      -4.365      -6.483
  N      -59.565      -5.486      -4.621
  C      -60.235      -6.476      -4.064
  N      -59.805      -7.706      -4.497
  O      -66.138     -10.283      -2.817
  O      -66.413      -7.921      -1.883
  H      -59.567     -11.154      -1.777
  H      -66.166     -10.443      -1.855
  H      -56.218      -6.210      -7.591
  H      -61.034      -6.357      -3.347
  H      -60.025      -9.713      -4.909
  H      -58.940      -9.123      -2.390
  H      -55.637      -8.399      -8.170
  H      -60.920      -7.872      -1.703
  H      -56.571      -9.719      -7.538
  H      -62.528     -10.284      -2.744
  H      -63.914      -8.728      -1.525
  H      -63.219      -7.334      -2.393
  P      -60.370      -9.075       0.624
  C      -57.927      -8.306       1.056
  O      -58.860      -8.851       0.130
  O      -60.256     -10.343       1.594
  O      -61.024      -7.913       1.288
  H      -60.136     -10.047       2.517
  H      -56.970      -8.216       0.586
  H      -57.848      -8.952       1.905
  H      -58.261      -7.340       1.373

 6  7  8  9  10  11  12  13  14  15  26  29  33  34 0
 6-311+G(2d,p)
 ****
 36  38  39  40  41 0
 6-311+G(2d,p)
 ****
 1  2  3  4  5  16  17  18  19  20  21  22  23  24  25 0
 3-21G
 ****
 27  28  30  31  32  35  37  42  43  44  45  46  47 0
 3-21G
 ****
 48  49 0
 3-21G
 ****


