%nproc=1
%NoSave
%Mem=1900MB
#P OB98/GEN NMR

erre ene a

0 1
  C       16.652     -66.958      62.073
  O       16.486     -66.386      63.356
  H       17.496     -67.653      62.077
  H       15.744     -67.509      61.815
  H       16.816     -66.176      61.327
  P       17.707     -65.504      63.911
  C       18.586     -67.396      65.454
  O       18.847     -66.545      64.348
  C       19.879     -68.052      65.929
  O       20.290     -69.074      64.998
  C       21.068     -67.104      66.048
  O       21.024     -66.352      67.251
  C       22.221     -68.096      66.053
  O       22.352     -68.683      67.362
  C       21.739     -69.153      65.049
  N       25.698     -70.053      61.935
  C       25.439     -70.446      63.200
  N       24.352     -70.184      63.957
  C       23.466     -69.445      63.270
  C       23.578     -68.986      61.969
  C       24.763     -69.313      61.287
  N       25.047     -68.846      60.013
  N       22.470     -68.244      61.613
  C       21.711     -68.239      62.688
  N       22.267     -68.956      63.713
  O       17.139     -64.951      65.305
  O       18.150     -64.397      63.014
  H       21.555     -69.230      67.505
  H       16.792     -64.049      65.174
  H       26.207     -71.050      63.671
  H       20.761     -67.730      62.773
  H       21.996     -70.170      65.363
  H       23.183     -67.638      65.807
  H       21.157     -66.456      65.169
  H       19.674     -68.543      66.889
  H       17.875     -68.174      65.156
  H       26.042     -68.740      59.834
  H       24.444     -68.095      59.699
  H       18.145     -66.799      66.258
  P       21.301     -64.774      67.156
  C       23.643     -65.221      68.159
  O       22.897     -64.593      67.126
  O       20.885     -64.251      68.610
  O       20.547     -64.059      66.088
  H       20.208     -63.552      68.528
  H       24.685     -65.021      68.019
  H       23.476     -66.277      68.128
  H       23.331     -64.838      69.108

 6  7  8  9  10  11  12  13  14  15  25  28  32  33  34  35 0
 6-311+G(2d,p)
 ****
 36  39  40 0
 6-311+G(2d,p)
 ****
 1  2  3  4  5  16  17  18  19  20  21  22  23  24 0
 3-21G
 ****
 26  27  29  30  31  37  38  41  42  43  44  45  46  47  48 0
 3-21G
 ****


