%nproc=1
%NoSave
%Mem=1900MB
#P OB98/GEN NMR

erre ene a

0 1
  C       -0.090     -13.472     -82.857
  O       -0.742     -12.266     -82.451
  P       -2.008     -12.310     -81.463
  C       -4.563     -12.204     -81.589
  O       -3.356     -12.307     -82.337
  C       -5.725     -13.007     -82.188
  O       -6.177     -12.417     -83.434
  C       -5.414     -14.477     -82.474
  O       -6.635     -15.190     -82.249
  C       -5.064     -14.454     -83.952
  O       -5.146     -15.738     -84.556
  C       -6.063     -13.411     -84.468
  N       -5.647     -12.825     -85.740
  C       -6.305     -13.274     -86.888
  O       -7.153     -14.165     -86.812
  N       -5.954     -12.739     -88.105
  C       -4.964     -11.902     -88.175
  N       -4.645     -11.427     -89.410
  C       -4.184     -11.467     -86.999
  C       -4.584     -11.957     -85.826
  O       -1.979     -11.297     -80.364
  O       -1.966     -13.796     -80.857
  H       -5.146     -15.622     -85.530
  H       -2.345     -13.786     -79.957
  H       -3.348     -10.788     -87.112
  H       -4.080     -11.694     -84.903
  H       -7.055     -13.862     -84.605
  H       -4.035     -14.092     -84.080
  H       -4.608     -14.880     -81.855
  H       -6.567     -12.935     -81.485
  H       -5.191     -11.768     -90.193
  H       -4.847     -11.145     -81.534
  H       -3.827     -10.863     -89.593
  H       -4.373     -12.539     -80.561
  P       -6.853     -16.121     -80.966
  C       -6.323     -18.540     -80.312
  O       -6.181     -17.537     -81.304
  O       -8.266     -16.204     -80.484
  O       -5.887     -15.510     -79.843
  H       -6.167     -15.836     -78.966
  H       -6.018     -19.502     -80.731
  H       -7.369     -18.612     -79.979
  H       -5.683     -18.307     -79.456
  H        0.724     -13.235     -83.510
  H       -0.788     -14.099     -83.371
  H        0.282     -13.984     -81.994

 3  4  5  6  7  8  9  10  11  12  13  23  27  28  29  30  32 0
 6-311+G(2d,p)
 ****
 34  35 0
 6-311+G(2d,p)
 ****
 1  2  14  15  16  17  18  19  20  21  22  24  25  26 0
 3-21G
 ****
 31  33  36  37  38  39  40  41  42  43  44  45  46 0
 3-21G
 ****


