%nproc=1
%NoSave
%Mem=1900MB
#P OB98/GEN NMR

erre ene a

0 1
  C      524.157    -212.689     420.498
  O      525.432    -212.085     420.434
  H      523.546    -212.139     421.218
  H      524.244    -213.729     420.828
  H      523.673    -212.647     419.517
  P      526.503    -212.767     419.450
  C      526.725    -210.772     417.830
  O      526.220    -212.089     418.021
  C      527.993    -210.801     416.976
  O      527.649    -211.305     415.658
  C      528.641    -209.425     416.796
  O      530.060    -209.563     416.817
  C      528.189    -209.000     415.405
  O      529.088    -208.071     414.808
  C      528.099    -210.347     414.685
  N      526.940    -207.810     410.411
  C      527.996    -207.733     411.253
  N      528.234    -208.458     412.361
  C      527.268    -209.381     412.544
  C      526.135    -209.575     411.778
  C      525.980    -208.732     410.657
  N      524.896    -208.794     409.812
  N      525.360    -210.590     412.312
  C      526.017    -211.000     413.377
  N      527.171    -210.288     413.570
  O      526.526    -214.260     419.456
  O      527.864    -212.055     419.903
  H      529.866    -208.561     414.471
  H      527.741    -211.097     420.034
  H      528.741    -206.977     411.001
  H      525.704    -211.793     414.047
  H      529.067    -210.679     414.290
  H      527.206    -208.528     415.464
  H      528.326    -208.710     417.559
  H      528.699    -211.516     417.417
  H      526.947    -210.310     418.800
  H      524.870    -208.163     409.024
  H      524.180    -209.487     409.973
  H      525.948    -210.178     417.337
  P      530.786    -209.772     418.233
  C      531.057    -212.303     418.648
  O      530.259    -211.145     418.880
  O      530.786    -208.590     419.146
  O      532.283    -210.154     417.801
  H      532.909    -209.752     418.434
  H      530.606    -213.148     419.125
  H      532.037    -212.147     419.049
  H      531.127    -212.483     417.596

 6  7  8  9  10  11  12  13  14  15  25  28  32  33  34  35 0
 6-311+G(2d,p)
 ****
 36  39  40 0
 6-311+G(2d,p)
 ****
 1  2  3  4  5  16  17  18  19  20  21  22  23  24 0
 3-21G
 ****
 26  27  29  30  31  37  38  41  42  43  44  45  46  47 0
 3-21G
 ****
 48 0
 3-21G
 ****


