%nproc=1
%NoSave
%Mem=1900MB
#P OB98/GEN NMR

erre ene a

0 1
  C      -95.734     -87.059    -225.033
  O      -95.906     -88.126    -224.101
  P      -95.259     -89.536    -224.520
  C      -96.319     -90.547    -226.658
  O      -95.353     -89.656    -226.118
  C      -96.324     -90.490    -228.191
  O      -95.130     -91.132    -228.734
  C      -97.539     -91.182    -228.827
  O      -97.877     -90.428    -230.000
  C      -96.969     -92.540    -229.205
  O      -97.770     -93.246    -230.136
  C      -95.588     -92.115    -229.690
  N      -94.327     -96.261    -232.379
  C      -95.336     -95.370    -232.512
  N      -95.604     -94.290    -231.750
  C      -94.697     -94.169    -230.764
  C      -93.618     -94.999    -230.501
  C      -93.443     -96.091    -231.367
  N      -92.434     -97.017    -231.228
  N      -92.924     -94.559    -229.384
  C      -93.627     -93.529    -228.947
  N      -94.650     -93.207    -229.794
  O      -96.321     -90.607    -223.987
  O      -93.895     -89.758    -223.953
  H      -97.383     -94.130    -230.306
  H      -96.029     -90.986    -223.138
  H      -96.015     -95.550    -233.340
  H      -93.435     -92.982    -228.034
  H      -95.625     -91.627    -230.672
  H      -96.888     -93.161    -228.305
  H      -98.412     -91.234    -228.170
  H      -96.295     -89.437    -228.494
  H      -97.314     -90.293    -226.287
  H      -92.394     -97.772    -231.897
  H      -91.765     -96.933    -230.479
  H      -96.108     -91.560    -226.301
  P      -98.883     -89.186    -229.856
  C     -100.936     -90.695    -230.163
  O     -100.239     -89.832    -229.284
  O      -99.276     -88.948    -231.394
  O      -98.348     -87.978    -229.167
  H      -99.545     -89.783    -231.821
  H     -101.787     -91.125    -229.627
  H     -100.283     -91.504    -230.498
  H     -101.311     -90.131    -231.021
  H      -96.202     -86.175    -224.653
  H      -96.182     -87.326    -225.967
  H      -94.690     -86.876    -225.177

 3  4  5  6  7  8  9  10  11  12  22  25  29  30  31  32 0
 6-311+G(2d,p)
 ****
 33  36  37 0
 6-311+G(2d,p)
 ****
 1  2  13  14  15  16  17  18  19  20  21  23  24  26 0
 3-21G
 ****
 27  28  34  35  38  39  40  41  42  43  44  45  46  47  48 0
 3-21G
 ****


