%nproc=1
%NoSave
%Mem=1900MB
#P OB98/GEN NMR

erre ene a

0 1
  C     -124.583    -114.246    -397.818
  O     -125.895    -114.775    -397.846
  H     -124.308    -114.002    -396.788
  H     -123.890    -115.005    -398.193
  H     -124.507    -113.358    -398.448
  P     -127.105    -113.743    -397.626
  C     -128.315    -111.999    -399.123
  O     -127.427    -113.109    -399.066
  C     -129.632    -112.405    -399.781
  O     -129.349    -112.899    -401.122
  C     -130.406    -113.501    -399.031
  O     -131.806    -113.205    -399.104
  C     -130.122    -114.751    -399.852
  O     -131.135    -115.740    -399.716
  C     -130.017    -114.167    -401.255
  N     -129.838    -118.946    -402.992
  C     -130.810    -118.253    -402.359
  N     -130.798    -116.956    -401.978
  C     -129.660    -116.357    -402.377
  C     -128.582    -116.929    -403.028
  C     -128.693    -118.305    -403.329
  N     -127.684    -119.033    -403.911
  N     -127.574    -116.000    -403.211
  C     -128.025    -114.894    -402.652
  N     -129.276    -115.061    -402.128
  O     -126.392    -112.541    -396.835
  O     -128.281    -114.279    -396.882
  H     -130.950    -116.472    -400.339
  H     -126.415    -112.722    -395.879
  H     -131.711    -118.811    -402.120
  H     -127.479    -113.967    -402.568
  H     -130.998    -113.991    -401.715
  H     -129.167    -115.188    -399.533
  H     -130.106    -113.616    -397.982
  H     -130.254    -111.505    -399.895
  H     -127.852    -111.202    -399.714
  H     -127.816    -120.032    -403.987
  H     -126.789    -118.595    -404.065
  H     -128.492    -111.627    -398.109
  P     -132.587    -112.981    -397.720
  C     -131.875    -111.537    -395.675
  O     -132.102    -111.594    -397.077
  O     -131.942    -114.083    -396.755
  O     -134.066    -113.149    -397.832
  H     -132.604    -114.408    -396.119
  H     -131.558    -110.551    -395.405
  H     -131.115    -112.241    -395.408
  H     -132.780    -111.775    -395.157

 6  7  8  9  10  11  12  13  14  15  25  28  32  33  34  35 0
 6-311+G(2d,p)
 ****
 36  39  40 0
 6-311+G(2d,p)
 ****
 1  2  3  4  5  16  17  18  19  20  21  22  23  24 0
 3-21G
 ****
 26  27  29  30  31  37  38  41  42  43  44  45  46  47 0
 3-21G
 ****
 48 0
 3-21G
 ****


