%nproc=1
%NoSave
%Mem=1900MB
#P OB98/GEN NMR

erre ene a

0 1
  C     -394.757     144.226     319.288
  O     -395.813     144.007     320.202
  H     -394.226     143.283     319.126
  H     -394.056     144.952     319.708
  H     -395.136     144.585     318.328
  P     -396.953     145.127     320.287
  C     -398.773     143.648     319.170
  O     -398.359     144.348     320.335
  C     -400.216     143.165     319.325
  O     -400.238     142.066     320.288
  C     -401.192     144.245     319.826
  O     -402.456     144.057     319.183
  C     -401.349     143.895     321.296
  O     -402.564     144.395     321.841
  C     -401.276     142.376     321.235
  N     -402.955     142.238     325.964
  C     -403.543     142.735     324.819
  N     -404.737     143.345     324.955
  N     -402.998     142.644     323.630
  C     -401.811     141.988     323.633
  C     -401.122     141.457     324.695
  C     -401.723     141.575     326.007
  O     -401.246     141.178     327.063
  N     -399.921     140.928     324.288
  C     -399.879     141.164     322.987
  N     -401.001     141.805     322.544
  O     -396.927     145.767     318.816
  O     -396.759     146.161     321.345
  H     -402.553     144.243     322.808
  H     -396.360     146.560     318.813
  H     -403.407     142.347     326.854
  H     -399.054     140.911     322.333
  H     -402.209     141.921     320.881
  H     -400.512     144.308     321.875
  H     -405.231     143.429     325.831
  H     -400.842     145.267     319.664
  H     -405.197     143.682     324.119
  H     -400.553     142.756     318.363
  H     -398.121     142.784     319.020
  H     -398.682     144.309     318.303
  P     -403.133     145.321     318.464
  C     -402.586     144.530     316.044
  O     -403.589     144.889     316.987
  O     -401.886     146.290     318.195
  O     -404.182     145.999     319.284
  H     -402.163     147.222     318.276
  H     -403.047     144.269     315.114
  H     -402.032     143.693     316.414
  H     -401.925     145.358     315.894

 6  7  8  9  10  11  12  13  14  15  26  29  33  34 0
 6-311+G(2d,p)
 ****
 36  38  39  40  41 0
 6-311+G(2d,p)
 ****
 1  2  3  4  5  16  17  18  19  20  21  22  23  24  25 0
 3-21G
 ****
 27  28  30  31  32  35  37  42  43  44  45  46  47 0
 3-21G
 ****
 48  49 0
 3-21G
 ****


