%nproc=1
%NoSave
%Mem=1900MB
#P OB98/GEN NMR

erre ene a

0 1
  C      -12.022     200.612     -40.499
  O      -12.472     201.536     -41.497
  P      -12.199     203.098     -41.245
  C      -14.385     203.592     -39.929
  O      -12.963     203.545     -39.902
  C      -14.933     204.491     -38.812
  O      -16.395     204.474     -38.808
  C      -14.485     204.065     -37.408
  O      -14.413     205.236     -36.588
  C      -15.640     203.207     -36.933
  O      -15.642     203.059     -35.514
  C      -16.823     203.987     -37.512
  N      -20.543     201.726     -34.954
  C      -19.453     202.453     -34.496
  N      -19.366     202.626     -33.156
  N      -18.536     202.958     -35.276
  C      -18.779     202.735     -36.600
  C      -19.803     202.022     -37.169
  C      -20.798     201.449     -36.295
  O      -21.776     200.788     -36.642
  N      -19.692     201.998     -38.541
  C      -18.586     202.681     -38.792
  N      -18.012     203.176     -37.642
  O      -13.044     203.802     -42.412
  O      -10.756     203.476     -41.320
  H      -15.630     203.961     -35.123
  H      -12.440     204.167     -43.083
  H      -21.213     201.349     -34.304
  H      -18.165     202.845     -39.766
  H      -17.094     204.854     -36.899
  H      -15.572     202.207     -37.385
  H      -20.066     202.304     -32.507
  H      -13.522     203.542     -37.375
  H      -18.604     203.189     -32.798
  H      -14.621     205.521     -39.005
  H      -14.797     202.584     -39.827
  H      -14.706     203.942     -40.920
  P      -13.035     206.057     -36.607
  C      -11.557     204.133     -35.671
  O      -11.865     204.971     -36.774
  O      -12.871     206.557     -35.093
  O      -12.999     207.190     -37.580
  H      -12.317     207.358     -35.062
  H      -11.984     203.136     -35.849
  H      -11.948     204.532     -34.729
  H      -10.470     204.044     -35.593
  H      -12.270     199.615     -40.798
  H      -12.499     200.834     -39.567
  H      -10.961     200.697     -40.386

 3  4  5  6  7  8  9  10  11  12  23  26  30  31 0
 6-311+G(2d,p)
 ****
 33  35  36  37  38 0
 6-311+G(2d,p)
 ****
 1  2  13  14  15  16  17  18  19  20  21  22  24  25 0
 3-21G
 ****
 27  28  29  32  34  39  40  41  42  43  44  45  46  47  48  49 0
 3-21G
 ****


