%nproc=1
%NoSave
%Mem=1900MB
#P OB98/GEN NMR

erre ene a

0 1
  C      264.539       7.630     -55.614
  O      265.150       7.076     -56.769
  P      266.448       6.152     -56.562
  C      265.024       4.035     -56.034
  O      266.008       4.952     -55.589
  C      265.108       2.729     -55.243
  O      263.950       1.915     -55.565
  C      266.352       1.881     -55.530
  O      266.687       1.199     -54.315
  C      265.853       0.878     -56.556
  O      266.662      -0.290     -56.623
  C      264.432       0.646     -56.054
  N      262.573      -3.484     -58.308
  C      263.535      -3.371     -57.320
  N      264.024      -4.529     -56.826
  N      263.976      -2.230     -56.859
  C      263.381      -1.160     -57.436
  C      262.450      -1.140     -58.447
  C      261.944      -2.408     -58.922
  O      261.032      -2.554     -59.733
  N      262.153       0.141     -58.833
  C      262.844       0.894     -58.002
  N      263.567       0.151     -57.106
  O      267.388       7.061     -55.642
  O      267.129       5.703     -57.816
  H      266.284      -0.878     -57.309
  H      268.019       7.574     -56.183
  H      262.260      -4.391     -58.611
  H      262.853       1.973     -57.996
  H      264.392      -0.078     -55.226
  H      265.847       1.340     -57.552
  H      263.708      -5.446     -57.113
  H      267.205       2.464     -55.889
  H      264.706      -4.478     -56.079
  H      265.049       2.969     -54.173
  H      265.197       3.812     -57.092
  H      264.030       4.486     -55.935
  P      268.169       1.384     -53.736
  C      267.511       3.666     -52.701
  O      268.414       2.950     -53.520
  O      269.092       1.039     -55.002
  O      268.504       0.500     -52.578
  H      269.923       0.632     -54.699
  H      268.008       4.569     -52.336
  H      267.189       3.069     -51.842
  H      266.637       3.956     -53.288
  H      263.693       8.217     -55.905
  H      265.244       8.250     -55.100
  H      264.219       6.841     -54.966

 3  4  5  6  7  8  9  10  11  12  23  26  30  31 0
 6-311+G(2d,p)
 ****
 33  35  36  37  38 0
 6-311+G(2d,p)
 ****
 1  2  13  14  15  16  17  18  19  20  21  22  24  25 0
 3-21G
 ****
 27  28  29  32  34  39  40  41  42  43  44  45  46  47  48  49 0
 3-21G
 ****


