%nproc=1
%NoSave
%Mem=1900MB
#P OB98/GEN NMR

erre ene a

0 1
  C      -57.427      87.472     638.614
  O      -57.717      87.724     639.993
  P      -58.297      89.185     640.353
  C      -56.010      90.416     640.647
  O      -57.213      90.259     639.871
  C      -55.027      91.332     639.929
  O      -55.549      92.672     639.785
  C      -53.689      91.507     640.659
  O      -52.814      90.401     640.460
  C      -53.157      92.760     640.007
  O      -52.509      92.431     638.757
  C      -54.443      93.570     639.738
  N      -53.480      98.412     640.941
  C      -53.094      97.684     639.820
  N      -52.351      98.337     638.909
  N      -53.388      96.429     639.646
  C      -54.138      95.909     640.648
  C      -54.594      96.526     641.789
  C      -54.245      97.919     641.986
  O      -54.534      98.605     642.966
  N      -55.348      95.678     642.554
  C      -55.367      94.560     641.888
  N      -54.647      94.646     640.703
  O      -58.177      89.230     641.949
  O      -59.694      89.412     639.882
  H      -53.164      91.933     638.225
  H      -58.855      89.839     642.317
  H      -53.231      99.398     641.025
  H      -55.893      93.659     642.178
  H      -54.423      94.029     638.732
  H      -52.398      93.285     640.610
  H      -52.161      99.335     638.928
  H      -53.861      91.702     641.744
  H      -52.096      97.830     638.055
  H      -54.831      90.926     638.935
  H      -55.551      89.431     640.813
  H      -56.276      90.799     641.641
  P      -52.872      89.204     641.529
  C      -51.554      90.865     643.071
  O      -52.614      89.918     642.959
  O      -51.510      88.436     641.246
  O      -54.058      88.330     641.425
  H      -51.598      87.479     641.512
  H      -51.524      91.527     642.220
  H      -50.601      90.312     643.192
  H      -51.726      91.445     643.985
  H      -57.051      86.476     638.505
  H      -56.692      88.170     638.271
  H      -58.321      87.581     638.036

 3  4  5  6  7  8  9  10  11  12  23  26  30  31  33  0
 6-311+G(2d,p)
 ****
 35  36  37  38 0
 6-311+G(2d,p)
 ****
 1  2  13  14  15  16  17  18  19  20  21  22  24  25  27  28  29 0
 3-21G
 ****
 32  34  39  40  41  42  43  44  45  46  47  48  49 0
 3-21G
 ****


