%nproc=1
%NoSave
%Mem=1900MB
#P OB98/GEN NMR

erre ene a

0 1
  C      154.391    -445.663      55.015
  O      155.803    -445.567      55.089
  H      154.114    -446.725      55.014
  H      154.031    -445.197      54.098
  H      153.935    -445.187      55.892
  P      156.426    -444.090      55.109
  C      156.459    -443.710      52.533
  O      155.875    -443.353      53.779
  C      155.828    -442.917      51.395
  O      156.058    -441.493      51.629
  C      156.387    -443.239      50.007
  O      155.326    -443.207      49.048
  C      157.342    -442.094      49.725
  O      157.585    -441.905      48.345
  C      156.594    -440.944      50.407
  N      158.783    -436.934      48.266
  C      157.904    -437.871      47.741
  N      157.564    -437.723      46.448
  N      157.402    -438.875      48.431
  C      157.816    -438.886      49.724
  C      158.685    -438.029      50.361
  C      159.244    -436.931      49.589
  O      160.028    -436.086      49.993
  N      158.874    -438.402      51.675
  C      158.122    -439.486      51.836
  N      157.469    -439.814      50.661
  O      157.973    -444.338      54.769
  O      156.233    -443.324      56.372
  H      158.370    -441.329      48.246
  H      158.534    -443.658      55.190
  H      159.132    -436.202      47.685
  H      158.023    -440.064      52.736
  H      155.766    -440.561      49.802
  H      158.302    -442.277      50.225
  H      157.875    -436.960      45.852
  H      156.883    -444.221      49.966
  H      156.914    -438.401      46.035
  H      154.741    -443.061      51.428
  H      156.308    -444.782      52.360
  H      157.540    -443.512      52.564
  P      154.683    -444.602      48.600
  C      156.745    -445.154      47.108
  O      155.871    -445.591      48.123
  O      153.938    -444.225      47.210
  O      153.714    -445.176      49.582
  H      152.985    -444.217      47.337
  H      157.469    -445.916      46.908
  H      157.244    -444.263      47.426
  H      156.186    -444.951      46.219

 6  7  8  9  10  11  12  13  14  15  26  29  33  34 0
 6-311+G(2d,p)
 ****
 36  38  39  40  41 0
 6-311+G(2d,p)
 ****
 1  2  3  4  5  16  17  18  19  20  21  22  23  24  25 0
 3-21G
 ****
 27  28  30  31  32  35  37  42  43  44  45  46  47 0
 3-21G
 ****
 48  49 0
 3-21G
 ****


