%nproc=1
%NoSave
%Mem=1900MB
#P OB98/GEN NMR

erre ene a

0 1
  C      -51.139    -372.282     140.760
  O      -50.640    -370.961     140.937
  P      -50.239    -370.513     142.426
  C      -52.072    -368.695     142.155
  O      -51.506    -369.705     142.987
  C      -53.592    -368.706     142.259
  O      -54.102    -369.965     141.775
  C      -54.132    -368.564     143.670
  O      -54.147    -367.214     144.099
  C      -55.547    -369.101     143.497
  O      -56.394    -368.069     142.967
  C      -55.347    -370.222     142.466
  N      -58.020    -374.324     143.769
  C      -58.434    -373.152     143.171
  N      -59.746    -373.070     142.851
  N      -57.640    -372.148     142.912
  C      -56.349    -372.383     143.251
  C      -55.820    -373.503     143.850
  C      -56.720    -374.589     144.177
  O      -56.422    -375.628     144.767
  N      -54.464    -373.382     144.026
  C      -54.169    -372.209     143.497
  N      -55.288    -371.550     143.044
  O      -49.151    -369.367     142.175
  O      -49.711    -371.603     143.296
  H      -57.302    -368.418     142.958
  H      -48.559    -369.298     142.951
  H      -58.671    -375.071     143.929
  H      -53.175    -371.797     143.428
  H      -56.146    -370.209     141.709
  H      -55.994    -369.429     144.444
  H      -60.375    -373.856     142.902
  H      -53.578    -369.204     144.371
  H      -60.062    -372.234     142.377
  H      -53.983    -367.912     141.612
  H      -51.780    -368.882     141.114
  H      -51.670    -367.723     142.458
  P      -53.292    -366.865     145.418
  C      -55.480    -366.050     146.564
  O      -54.346    -366.898     146.623
  O      -52.958    -365.310     145.237
  O      -52.066    -367.698     145.588
  H      -52.140    -365.085     145.722
  H      -55.852    -365.953     145.534
  H      -55.213    -365.065     146.948
  H      -56.273    -366.475     147.179
  H      -51.364    -372.443     139.726
  H      -52.028    -372.409     141.342
  H      -50.401    -372.988     141.078

 3  4  5  6  7  8  9  10  11  12  23  26  30  31  33  0
 6-311+G(2d,p)
 ****
 35  36  37  38 0
 6-311+G(2d,p)
 ****
 1  2  13  14  15  16  17  18  19  20  21  22  24  25  27  28  29 0
 3-21G
 ****
 32  34  39  40  41  42  43  44  45  46  47  48  49 0
 3-21G
 ****


