%nproc=1
%NoSave
%Mem=1900MB
#P OB98/GEN NMR

erre ene a

0 1
  C      215.309     772.601     245.807
  O      214.560     772.987     246.942
  H      215.718     773.487     245.310
  H      216.138     771.967     246.127
  H      214.677     772.044     245.108
  P      213.313     773.963     246.693
  C      211.933     772.023     247.726
  O      212.107     773.433     247.622
  C      210.458     771.700     247.931
  O      210.012     772.342     249.154
  C      209.532     772.159     246.784
  O      208.814     771.037     246.250
  C      208.537     773.090     247.452
  O      207.206     772.926     246.974
  C      208.648     772.732     248.936
  N      205.967     774.113     253.043
  C      206.447     772.912     252.650
  N      207.247     772.632     251.601
  C      207.575     773.750     250.927
  C      207.172     775.044     251.225
  C      206.312     775.206     252.323
  N      205.776     776.423     252.687
  N      207.691     775.935     250.301
  C      208.358     775.186     249.448
  N      208.294     773.851     249.775
  O      212.844     773.591     245.207
  O      213.611     775.418     246.822
  H      206.951     772.003     247.155
  H      212.716     774.398     244.687
  H      206.147     772.060     253.259
  H      208.855     775.537     248.545
  H      208.003     771.883     249.201
  H      208.849     774.129     247.276
  H      210.072     772.677     245.986
  H      210.360     770.616     248.088
  H      212.510     771.649     248.577
  H      205.084     776.426     253.415
  H      205.951     777.222     252.092
  H      212.319     771.546     246.815
  P      209.440     770.344     244.933
  C      207.797     768.472     245.717
  O      208.626     768.988     244.676
  O      210.868     769.815     245.454
  O      209.578     771.270     243.763
  H      211.502     769.764     244.718
  H      207.328     767.569     245.385
  H      207.046     769.193     245.966
  H      208.395     768.267     246.580

 6  7  8  9  10  11  12  13  14  15  25  28  32  33  34  35 0
 6-311+G(2d,p)
 ****
 36  39  40 0
 6-311+G(2d,p)
 ****
 1  2  3  4  5  16  17  18  19  20  21  22  23  24 0
 3-21G
 ****
 26  27  29  30  31  37  38  41  42  43  44  45  46  47  48 0
 3-21G
 ****


