%nproc=1
%NoSave
%Mem=1900MB
#P OB98/GEN NMR

erre ene a

0 1
  C      168.052    -303.337    -924.531
  O      168.699    -302.355    -923.713
  P      168.751    -302.643    -922.133
  C      169.049    -300.144    -921.449
  O      169.602    -301.463    -921.451
  C      170.024    -299.153    -922.081
  O      169.913    -299.159    -923.515
  C      169.785    -297.706    -921.678
  O      170.338    -297.417    -920.396
  C      170.550    -296.960    -922.764
  O      171.955    -296.906    -922.431
  C      170.322    -297.856    -923.996
  N      169.297    -294.693    -927.823
  C      170.488    -294.924    -927.151
  N      171.569    -294.230    -927.596
  N      170.617    -295.757    -926.165
  C      169.460    -296.402    -925.851
  C      168.216    -296.252    -926.431
  C      168.084    -295.296    -927.518
  O      167.049    -295.027    -928.117
  N      167.290    -297.076    -925.848
  C      167.973    -297.747    -924.943
  N      169.291    -297.358    -924.893
  O      169.740    -303.907    -922.028
  O      167.416    -302.921    -921.529
  H      172.396    -296.398    -923.149
  H      169.532    -304.429    -921.226
  H      169.261    -294.032    -928.582
  H      167.563    -298.518    -924.297
  H      171.246    -297.989    -924.573
  H      170.209    -295.932    -922.890
  H      171.565    -293.630    -928.410
  H      168.717    -297.444    -921.733
  H      172.465    -294.418    -927.151
  H      171.047    -299.452    -921.805
  H      168.836    -299.842    -920.418
  H      168.095    -300.162    -921.976
  P      169.402    -296.602    -919.365
  C      171.149    -294.723    -918.910
  O      170.422    -295.824    -918.396
  O      168.786    -297.756    -918.443
  O      168.356    -295.762    -920.012
  H      167.912    -297.472    -918.097
  H      170.512    -294.080    -919.530
  H      171.995    -295.088    -919.508
  H      171.537    -294.133    -918.073
  H      168.086    -303.027    -925.555
  H      167.032    -303.442    -924.224
  H      168.554    -304.276    -924.426

 3  4  5  6  7  8  9  10  11  12  23  26  30  31  33  0
 6-311+G(2d,p)
 ****
 35  36  37  38 0
 6-311+G(2d,p)
 ****
 1  2  13  14  15  16  17  18  19  20  21  22  24  25  27  28  29 0
 3-21G
 ****
 32  34  39  40  41  42  43  44  45  46  47  48  49 0
 3-21G
 ****


