%nproc=1
%NoSave
%Mem=1900MB
#P OB98/GEN NMR

erre ene a

0 1
  C      198.327      40.324      27.437
  O      199.462      39.532      27.063
  P      199.429      37.966      27.396
  C      198.946      37.186      24.962
  O      198.497      37.247      26.308
  C      198.448      35.899      24.295
  O      197.005      35.850      24.239
  C      198.928      35.732      22.859
  O      200.238      35.188      22.800
  C      197.924      34.718      22.333
  O      198.300      33.392      22.758
  C      196.627      35.155      23.025
  N      193.376      35.321      19.153
  C      194.004      34.242      19.742
  N      193.720      33.025      19.226
  N      194.839      34.344      20.744
  C      195.014      35.618      21.165
  C      194.450      36.770      20.662
  C      193.543      36.644      19.546
  O      192.965      37.565      18.974
  N      194.877      37.874      21.349
  C      195.682      37.395      22.279
  N      195.812      36.030      22.197
  O      198.533      37.903      28.724
  O      200.772      37.354      27.609
  H      199.097      33.152      22.249
  H      198.783      37.127      29.255
  H      192.748      35.185      18.381
  H      196.190      37.989      23.027
  H      195.998      34.305      23.312
  H      197.884      34.699      21.240
  H      193.051      32.869      18.490
  H      198.840      36.671      22.299
  H      194.145      32.218      19.666
  H      198.803      35.047      24.894
  H      200.038      37.224      24.923
  H      198.596      38.074      24.430
  P      201.452      36.190      22.486
  C      202.909      35.294      24.441
  O      202.226      36.394      23.872
  O      200.704      37.586      22.248
  O      202.291      35.807      21.317
  H      201.202      38.125      21.604
  H      203.506      35.650      25.283
  H      203.573      34.830      23.707
  H      202.189      34.557      24.807
  H      198.493      41.342      27.152
  H      198.187      40.268      28.496
  H      197.454      39.953      26.941

 3  4  5  6  7  8  9  10  11  12  23  26  30  31 0
 6-311+G(2d,p)
 ****
 33  35  36  37  38 0
 6-311+G(2d,p)
 ****
 1  2  13  14  15  16  17  18  19  20  21  22  24  25 0
 3-21G
 ****
 27  28  29  32  34  39  40  41  42  43  44  45  46  47  48  49 0
 3-21G
 ****


