%nproc=1
%NoSave
%Mem=1900MB
#P OB98/GEN NMR

erre ene a

0 1
  C     -142.254      42.952     115.713
  O     -142.233      42.301     116.966
  P     -142.933      40.890     117.232
  C     -145.047      41.732     118.487
  O     -144.521      41.126     117.313
  C     -146.527      42.123     118.352
  O     -146.729      42.819     117.107
  C     -147.399      40.863     118.292
  O     -147.795      40.212     119.482
  C     -148.537      41.218     117.344
  O     -149.727      41.606     118.036
  C     -147.978      42.393     116.539
  N     -149.730      43.007     111.822
  C     -150.053      43.708     112.967
  N     -151.111      44.543     112.869
  N     -149.412      43.578     114.101
  C     -148.442      42.634     114.066
  C     -148.021      41.887     112.989
  C     -148.711      42.071     111.733
  O     -148.510      41.409     110.716
  N     -147.060      40.976     113.342
  C     -146.925      41.142     114.642
  N     -147.772      42.109     115.133
  O     -142.289      40.000     118.246
  O     -142.769      40.177     115.793
  H     -149.570      42.481     118.434
  H     -142.643      39.222     115.950
  H     -150.311      43.092     110.998
  H     -146.258      40.568     115.277
  H     -148.655      43.256     116.594
  H     -148.809      40.354     116.725
  H     -151.713      44.559     112.061
  H     -146.815      40.102     117.757
  H     -151.480      44.942     113.727
  H     -146.822      42.823     119.138
  H     -144.435      42.614     118.703
  H     -144.933      41.049     119.333
  P     -147.720      38.642     119.776
  C     -150.263      38.461     119.547
  O     -149.012      37.945     119.131
  O     -148.000      38.520     121.349
  O     -146.419      37.996     119.427
  H     -147.639      37.677     121.683
  H     -151.045      37.743     119.298
  H     -150.465      39.402     119.021
  H     -150.275      38.643     120.626
  H     -141.721      43.877     115.783
  H     -143.267      43.145     115.428
  H     -141.790      42.327     114.979

 3  4  5  6  7  8  9  10  11  12  23  26  30  31 0
 6-311+G(2d,p)
 ****
 33  35  36  37  38 0
 6-311+G(2d,p)
 ****
 1  2  13  14  15  16  17  18  19  20  21  22  24  25 0
 3-21G
 ****
 27  28  29  32  34  39  40  41  42  43  44  45  46  47  48  49 0
 3-21G
 ****


