%nproc=1
%NoSave
%Mem=1900MB
#P OB98/GEN NMR

erre ene a

0 1
  C     -235.883     743.581     198.069
  O     -236.671     744.713     197.749
  H     -234.879     743.728     197.669
  H     -236.313     742.679     197.622
  H     -235.813     743.458     199.156
  P     -238.197     744.734     198.227
  C     -238.945     743.019     196.444
  O     -239.071     744.349     196.940
  C     -240.324     742.440     196.134
  O     -241.169     742.492     197.291
  C     -241.062     743.194     195.016
  O     -240.594     742.770     193.739
  C     -242.499     742.767     195.298
  O     -242.703     741.423     194.828
  C     -242.532     742.804     196.839
  N     -246.433     745.825     197.988
  C     -246.419     744.599     197.350
  N     -247.615     744.132     196.925
  N     -245.341     743.903     197.134
  C     -244.203     744.527     197.559
  C     -244.092     745.754     198.190
  C     -245.316     746.479     198.483
  O     -245.373     747.567     199.058
  N     -242.786     746.079     198.408
  C     -242.103     745.051     197.957
  N     -242.918     744.081     197.404
  O     -238.661     745.990     198.923
  O     -238.333     743.446     199.167
  H     -242.484     741.418     193.877
  H     -238.173     743.670     200.098
  H     -247.303     746.316     198.112
  H     -241.026     744.949     197.993
  H     -243.197     742.043     197.260
  H     -243.234     743.403     194.817
  H     -248.413     744.745     196.811
  H     -240.991     744.277     195.139
  H     -247.620     743.265     196.404
  H     -240.196     741.389     195.863
  H     -238.463     742.423     197.228
  H     -238.323     743.005     195.543
  P     -240.405     743.822     192.533
  C     -242.860     744.154     191.797
  O     -241.622     743.521     191.532
  O     -239.060     743.826     191.911
  O     -240.826     745.234     193.175
  H     -240.077     745.708     193.608
  H     -243.575     743.864     191.055
  H     -242.730     745.216     191.772
  H     -243.211     743.860     192.764

 6  7  8  9  10  11  12  13  14  15  26  29  33  34 0
 6-311+G(2d,p)
 ****
 36  38  39  40  41 0
 6-311+G(2d,p)
 ****
 1  2  3  4  5  16  17  18  19  20  21  22  23  24  25 0
 3-21G
 ****
 27  28  30  31  32  35  37  42  43  44  45  46  47 0
 3-21G
 ****
 48  49 0
 3-21G
 ****


