%nproc=1
%NoSave
%Mem=1900MB
#P OB98/GEN NMR

erre ene a

0 1
  C      312.587    -614.089     207.284
  O      311.263    -613.756     207.711
  P      310.746    -614.355     209.103
  C      309.034    -615.838     207.827
  O      310.055    -615.770     208.807
  C      308.506    -617.271     207.704
  O      309.515    -618.171     207.193
  C      308.041    -617.867     209.026
  O      306.717    -617.468     209.350
  C      308.067    -619.354     208.704
  O      306.884    -619.715     207.962
  C      309.310    -619.471     207.810
  N      313.613    -622.110     207.564
  C      312.624    -621.929     206.617
  N      312.811    -622.541     205.426
  N      311.548    -621.220     206.825
  C      311.505    -620.650     208.049
  C      312.418    -620.760     209.069
  C      313.602    -621.559     208.839
  O      314.504    -621.762     209.646
  N      312.020    -620.047     210.173
  C      310.877    -619.493     209.819
  N      310.510    -619.848     208.546
  O      309.495    -613.420     209.452
  O      311.768    -614.341     210.193
  H      306.127    -619.613     208.575
  H      309.368    -613.375     210.414
  H      314.424    -622.668     207.360
  H      310.282    -618.840     210.442
  H      309.177    -620.198     207.002
  H      308.085    -619.978     209.603
  H      313.638    -623.064     205.183
  H      308.752    -617.644     209.831
  H      312.109    -622.395     204.708
  H      307.658    -617.263     207.001
  H      309.406    -615.492     206.857
  H      308.234    -615.138     208.101
  P      306.534    -616.178     210.287
  C      306.972    -617.316     212.586
  O      307.447    -616.441     211.580
  O      305.033    -616.347     210.828
  O      306.732    -614.869     209.603
  H      304.636    -615.471     210.982
  H      307.778    -617.494     213.299
  H      306.662    -618.269     212.154
  H      306.133    -616.857     213.118
  H      312.788    -613.619     206.344
  H      312.671    -615.150     207.177
  H      313.293    -613.747     208.012

 3  4  5  6  7  8  9  10  11  12  23  26  30  31 0
 6-311+G(2d,p)
 ****
 33  35  36  37  38 0
 6-311+G(2d,p)
 ****
 1  2  13  14  15  16  17  18  19  20  21  22  24  25 0
 3-21G
 ****
 27  28  29  32  34  39  40  41  42  43  44  45  46  47  48  49 0
 3-21G
 ****


