%nproc=1
%NoSave
%Mem=1900MB
#P OB98/GEN NMR

erre ene a

0 1
  C      268.504     300.890    -503.282
  O      267.419     300.602    -502.418
  H      269.228     300.067    -503.264
  H      268.124     301.001    -504.301
  H      268.990     301.824    -502.981
  P      267.769     300.430    -500.862
  C      266.659     298.083    -500.803
  O      266.688     299.403    -500.270
  C      265.303     297.436    -500.525
  O      265.171     297.157    -499.118
  C      264.097     298.297    -500.891
  O      263.820     298.249    -502.282
  C      263.007     297.612    -500.078
  O      262.569     296.424    -500.760
  C      263.752     297.240    -498.790
  N      260.697     298.732    -494.966
  C      260.634     297.678    -495.814
  N      261.498     297.338    -496.789
  C      262.527     298.202    -496.840
  C      262.739     299.305    -496.035
  C      261.756     299.566    -495.057
  N      261.799     300.689    -494.241
  N      263.897     299.961    -496.397
  C      264.364     299.277    -497.418
  N      263.574     298.200    -497.715
  O      267.336     301.845    -500.242
  O      269.196     300.113    -500.563
  H      262.264     296.702    -501.645
  H      268.119     302.417    -500.166
  H      259.772     297.026    -495.691
  H      265.260     299.521    -497.966
  H      263.455     296.254    -498.408
  H      262.127     298.244    -499.925
  H      264.210     299.327    -500.534
  H      265.276     296.474    -501.056
  H      267.449     297.487    -500.340
  H      260.882     301.011    -493.948
  H      262.458     301.397    -494.534
  H      266.838     298.140    -501.882
  P      264.242     299.516    -503.174
  C      261.910     299.845    -504.246
  O      263.278     299.515    -504.454
  O      265.659     299.081    -503.758
  O      264.335     300.815    -502.430
  H      266.338     299.747    -503.529
  H      261.388     299.805    -505.179
  H      261.839     300.832    -503.839
  H      261.474     299.146    -503.563

 6  7  8  9  10  11  12  13  14  15  25  28  32  33  34  35 0
 6-311+G(2d,p)
 ****
 36  39  40 0
 6-311+G(2d,p)
 ****
 1  2  3  4  5  16  17  18  19  20  21  22  23  24 0
 3-21G
 ****
 26  27  29  30  31  37  38  41  42  43  44  45  46  47  48 0
 3-21G
 ****


