%nproc=1
%NoSave
%Mem=1900MB
#P OB98/GEN NMR

erre ene a

0 1
  C     -251.830     167.852     116.124
  O     -251.453     169.094     116.717
  P     -251.088     169.089     118.276
  C     -252.768     171.015     118.872
  O     -252.347     169.680     119.080
  C     -253.753     171.462     119.972
  O     -255.000     170.743     119.787
  C     -253.315     171.160     121.402
  O     -254.071     171.976     122.297
  C     -253.738     169.715     121.555
  O     -253.809     169.329     122.926
  C     -255.073     169.676     120.776
  N     -255.331     168.383     120.106
  C     -256.267     167.517     120.668
  O     -256.896     167.768     121.697
  N     -256.439     166.318     120.033
  C     -255.816     165.921     118.890
  O     -255.941     164.799     118.411
  C     -254.944     166.920     118.262
  C     -254.733     168.079     118.892
  O     -249.971     170.229     118.405
  O     -250.603     167.769     118.780
  H     -254.155     168.409     122.936
  H     -249.089     169.823     118.516
  H     -257.068     165.660     120.467
  H     -254.477     166.667     117.315
  H     -254.076     168.823     118.450
  H     -255.921     169.876     121.441
  H     -253.003     169.062     121.073
  H     -252.245     171.295     121.589
  H     -253.966     172.531     119.849
  H     -253.234     171.113     117.886
  H     -251.897     171.684     118.872
  P     -253.414     173.351     122.800
  C     -253.589     172.777     125.301
  O     -252.722     173.031     124.212
  O     -254.300     174.554     122.773
  O     -252.155     173.522     121.823
  H     -251.855     174.454     121.826
  H     -253.086     172.103     126.001
  H     -254.525     172.318     124.969
  H     -253.810     173.723     125.812
  H     -252.045     168.003     115.087
  H     -252.700     167.471     116.617
  H     -251.028     167.151     116.224

 3  4  5  6  7  8  9  10  11  12  13  23  28  29  30  31  32 0
 6-311+G(2d,p)
 ****
 33  34 0
 6-311+G(2d,p)
 ****
 1  2  14  15  16  17  18  19  20  21  22  24  25  26  27 0
 3-21G
 ****
 35  36  37  38  39  40  41  42  43  44  45 0
 3-21G
 ****


