%nproc=1
%NoSave
%Mem=1900MB
#P OB98/GEN NMR

erre ene a

0 1
  C     -918.896    -255.818    -897.260
  O     -918.087    -256.191    -896.140
  P     -918.467    -257.554    -895.390
  C     -916.690    -259.281    -896.190
  O     -918.016    -258.791    -896.330
  C     -915.863    -258.896    -897.410
  O     -915.693    -257.457    -897.520
  C     -914.441    -259.456    -897.380
  O     -914.440    -260.841    -897.700
  C     -913.770    -258.571    -898.430
  O     -914.086    -259.024    -899.760
  C     -914.434    -257.213    -898.160
  N     -911.902    -252.763    -898.100
  C     -912.608    -253.380    -899.060
  N     -913.251    -254.560    -899.000
  C     -913.124    -255.119    -897.780
  C     -912.419    -254.616    -896.700
  C     -911.789    -253.371    -896.880
  N     -911.045    -252.755    -895.900
  N     -912.509    -255.472    -895.620
  C     -913.226    -256.496    -896.050
  N     -913.628    -256.316    -897.360
  O     -920.065    -257.581    -895.470
  O     -917.986    -257.614    -893.980
  H     -915.047    -259.112    -899.820
  H     -920.448    -257.411    -894.590
  H     -912.677    -252.843    -900.000
  H     -913.481    -257.365    -895.470
  H     -914.652    -256.667    -899.110
  H     -912.678    -258.565    -898.340
  H     -913.986    -259.292    -896.410
  H     -916.378    -259.249    -898.320
  H     -916.703    -260.372    -896.080
  H     -910.560    -251.914    -896.150
  H     -910.895    -253.248    -895.020
  H     -916.260    -258.872    -895.280
  P     -914.505    -261.876    -896.470
  C     -916.509    -263.207    -897.370
  O     -916.072    -262.284    -896.400
  O     -914.341    -260.899    -895.220
  O     -913.543    -263.008    -896.550
  H     -914.914    -260.106    -895.290
  H     -917.566    -263.410    -897.200
  H     -915.948    -264.138    -897.310
  H     -916.394    -262.768    -898.370
  H     -918.538    -254.895    -897.667
  H     -919.911    -255.698    -896.943
  H     -918.844    -256.582    -898.008

 3  4  5  6  7  8  9  10  11  12  22  25  29  30  31  32 0
 6-311+G(2d,p)
 ****
 33  36  37 0
 6-311+G(2d,p)
 ****
 1  2  13  14  15  16  17  18  19  20  21  23  24  26 0
 3-21G
 ****
 27  28  34  35  38  39  40  41  42  43  44  45  46  47  48 0
 3-21G
 ****


