%nproc=1
%NoSave
%Mem=1900MB
#P OB98/GEN NMR

erre ene a

0 1
  C      142.416     164.995    -136.365
  O      143.445     165.429    -137.254
  P      144.727     166.175    -136.645
  C      146.907     165.527    -135.433
  O      145.772     165.060    -136.156
  C      147.926     164.403    -135.241
  O      147.419     163.365    -134.378
  C      148.301     163.703    -136.537
  O      149.160     164.513    -137.320
  C      148.920     162.417    -136.013
  O      150.291     162.621    -135.634
  C      148.063     162.130    -134.760
  N      147.094     161.063    -134.958
  C      147.302     159.897    -134.212
  O      148.283     159.800    -133.474
  N      146.403     158.868    -134.337
  C      145.391     158.989    -135.140
  N      144.532     157.940    -135.220
  C      145.142     160.195    -135.952
  C      146.028     161.180    -135.819
  O      144.436     167.253    -135.654
  O      145.444     166.771    -137.953
  H      150.624     161.748    -135.345
  H      145.915     167.591    -137.707
  H      144.282     160.249    -136.603
  H      145.923     162.100    -136.381
  H      148.706     161.845    -133.917
  H      148.909     161.624    -136.767
  H      147.391     163.470    -137.106
  H      148.825     164.834    -134.776
  H      144.732     157.118    -134.661
  H      146.587     165.910    -134.462
  H      143.690     157.955    -135.777
  H      147.348     166.371    -135.975
  P      148.575     165.111    -138.689
  C      147.023     167.081    -139.342
  O      147.814     166.473    -138.338
  O      147.382     164.101    -139.040
  O      149.561     165.193    -139.808
  H      147.308     164.010    -140.008
  H      146.341     167.793    -138.867
  H      146.431     166.340    -139.887
  H      147.665     167.622    -140.041
  H      141.638     164.520    -136.925
  H      142.015     165.839    -135.844
  H      142.823     164.301    -135.660

 3  4  5  6  7  8  9  10  11  12  13  23  27  28  29  30  32 0
 6-311+G(2d,p)
 ****
 34  35 0
 6-311+G(2d,p)
 ****
 1  2  14  15  16  17  18  19  20  21  22  24  25  26 0
 3-21G
 ****
 31  33  36  37  38  39  40  41  42  43  44  45  46 0
 3-21G
 ****


