%nproc=1
%NoSave
%Mem=1900MB
#P OB98/GEN NMR

erre ene a

0 1
  C     -537.652    -123.956    1052.454
  O     -537.543    -124.146    1051.064
  H     -536.653    -123.783    1052.859
  H     -538.069    -124.853    1052.921
  H     -538.281    -123.095    1052.685
  P     -538.880    -124.137    1050.170
  C     -538.209    -123.089    1047.901
  O     -538.407    -124.295    1048.643
  C     -537.108    -123.270    1046.850
  O     -535.832    -123.465    1047.529
  C     -537.329    -124.485    1045.933
  O     -536.749    -124.154    1044.648
  C     -536.497    -125.553    1046.619
  O     -536.217    -126.623    1045.752
  C     -535.296    -124.720    1047.083
  N     -534.523    -125.392    1048.133
  C     -533.778    -126.504    1047.735
  O     -533.789    -126.950    1046.578
  N     -533.071    -127.129    1048.724
  C     -533.075    -126.793    1050.045
  O     -532.447    -127.408    1050.897
  C     -533.910    -125.640    1050.410
  C     -534.584    -125.001    1049.459
  O     -539.817    -123.003    1050.421
  O     -539.571    -125.555    1050.463
  H     -535.498    -126.377    1045.126
  H     -540.540    -125.480    1050.386
  H     -532.519    -127.937    1048.459
  H     -533.947    -125.352    1051.451
  H     -535.214    -124.144    1049.697
  H     -534.614    -124.519    1046.242
  H     -537.037    -125.961    1047.489
  H     -538.379    -124.761    1045.813
  H     -537.029    -122.331    1046.269
  H     -537.917    -122.308    1048.616
  H     -539.148    -122.801    1047.421
  P     -537.509    -123.208    1043.599
  C     -535.284    -122.225    1042.715
  O     -536.497    -122.894    1042.375
  O     -538.141    -121.995    1044.200
  O     -538.610    -124.149    1042.922
  H     -539.371    -123.599    1042.630
  H     -534.701    -122.073    1041.831
  H     -534.730    -122.822    1043.409
  H     -535.511    -121.279    1043.160

 6  7  8  9  10  11  12  13  14  15  16  26  31  32  33  34  35 0
 6-311+G(2d,p)
 ****
 36  37 0
 6-311+G(2d,p)
 ****
 1  2  3  4  5  17  18  19  20  21  22  23  24  25 0
 3-21G
 ****
 27  28  29  30  38  39  40  41  42  43  44  45 0
 3-21G
 ****


