%nproc=1
%NoSave
%Mem=1900MB
#P OB98/GEN NMR

erre ene a

0 1
  C      -76.163     134.921    -284.560
  O      -74.868     135.403    -284.853
  H      -76.362     134.024    -285.150
  H      -76.211     134.661    -283.499
  H      -76.919     135.682    -284.772
  P      -74.655     136.122    -286.271
  C      -74.550     138.520    -285.283
  O      -75.248     137.607    -286.118
  C      -75.476     139.648    -284.833
  O      -76.643     139.061    -284.190
  C      -74.838     140.632    -283.840
  O      -75.293     141.951    -284.152
  C      -75.425     140.210    -282.506
  O      -75.451     141.268    -281.555
  C      -76.811     139.731    -282.928
  N      -80.185     139.459    -279.136
  C      -80.014     140.357    -280.128
  N      -79.119     140.326    -281.134
  C      -78.396     139.193    -281.094
  C      -78.461     138.183    -280.150
  C      -79.400     138.355    -279.118
  N      -79.536     137.480    -278.066
  N      -77.516     137.212    -280.418
  C      -76.875     137.644    -281.487
  N      -77.371     138.838    -281.930
  O      -75.732     135.381    -287.196
  O      -73.278     136.035    -286.837
  H      -74.541     141.431    -281.238
  H      -75.336     134.578    -287.581
  H      -80.675     141.220    -280.104
  H      -76.036     137.152    -281.957
  H      -77.519     140.558    -283.067
  H      -74.834     139.386    -282.089
  H      -73.742     140.610    -283.839
  H      -75.835     140.178    -285.723
  H      -73.714     138.950    -285.844
  H      -80.159     137.741    -277.317
  H      -78.885     136.714    -277.980
  H      -74.154     137.984    -284.415
  P      -74.593     142.702    -285.384
  C      -76.818     143.192    -286.645
  O      -75.539     142.567    -286.668
  O      -73.354     141.752    -285.735
  O      -74.148     144.094    -285.070
  H      -72.604     142.282    -286.062
  H      -77.321     143.009    -287.571
  H      -76.697     144.246    -286.507
  H      -77.397     142.791    -285.839

 6  7  8  9  10  11  12  13  14  15  25  28  32  33  34  35 0
 6-311+G(2d,p)
 ****
 36  39  40 0
 6-311+G(2d,p)
 ****
 1  2  3  4  5  16  17  18  19  20  21  22  23  24 0
 3-21G
 ****
 26  27  29  30  31  37  38  41  42  43  44  45  46  47 0
 3-21G
 ****
 48 0
 3-21G
 ****


