%nproc=1
%NoSave
%Mem=1900MB
#P OB98/GEN NMR

erre ene a

0 1
  C      393.902      35.257     628.404
  O      395.020      36.115     628.305
  H      393.164      35.722     629.067
  H      394.198      34.296     628.834
  H      393.445      35.105     627.425
  P      396.255      35.662     627.387
  C      396.849      34.072     629.347
  O      397.316      35.054     628.433
  C      397.943      33.041     629.614
  O      398.386      32.415     628.391
  C      399.219      33.601     630.236
  O      399.080      33.946     631.607
  C      400.151      32.426     630.031
  O      399.855      31.395     630.982
  C      399.766      31.997     628.592
  N      400.637      32.581     627.571
  C      401.658      31.766     627.075
  O      401.805      30.620     627.491
  N      402.519      32.284     626.131
  C      402.379      33.513     625.741
  N      403.262      33.973     624.813
  C      401.328      34.413     626.256
  C      400.499      33.889     627.158
  O      396.792      36.698     626.451
  O      395.739      34.337     626.647
  H      400.230      31.679     631.837
  H      396.465      34.020     626.057
  H      401.279      35.434     625.918
  H      399.705      34.498     627.585
  H      399.789      30.905     628.494
  H      401.207      32.685     630.150
  H      399.592      34.456     629.656
  H      397.507      32.254     630.240
  H      403.972      33.332     624.477
  H      395.961      33.605     628.920
  H      403.280      34.936     624.503
  H      396.579      34.549     630.295
  P      399.045      35.521     631.962
  C      401.380      36.189     631.014
  O      400.568      35.967     632.154
  O      398.439      35.536     633.442
  O      398.260      36.364     631.007
  H      397.485      35.745     633.426
  H      402.362      36.479     631.326
  H      400.952      36.967     630.417
  H      401.440      35.289     630.438

 6  7  8  9  10  11  12  13  14  15  16  26  30  31  32  33  35 0
 6-311+G(2d,p)
 ****
 37  38 0
 6-311+G(2d,p)
 ****
 1  2  3  4  5  17  18  19  20  21  22  23  24  25 0
 3-21G
 ****
 27  28  29  34  36  39  40  41  42  43  44  45  46 0
 3-21G
 ****


