%nproc=1
%NoSave
%Mem=1900MB
#P OB98/GEN NMR

erre ene a

0 1
  C      -80.020      72.836     175.144
  O      -80.825      72.999     176.298
  P      -81.410      74.472     176.574
  C      -80.383      76.873     176.543
  O      -80.160      75.473     176.484
  C      -79.126      77.568     177.071
  O      -78.139      77.685     176.028
  C      -79.366      78.982     177.589
  O      -79.871      78.946     178.914
  C      -77.971      79.586     177.477
  O      -77.152      79.200     178.601
  C      -77.451      78.956     176.179
  N      -75.316      82.312     173.059
  C      -74.867      81.810     174.267
  N      -73.652      82.233     174.676
  N      -75.547      80.968     174.999
  C      -76.748      80.649     174.472
  C      -77.309      81.091     173.296
  C      -76.527      81.980     172.469
  O      -76.836      82.377     171.349
  N      -78.561      80.559     173.104
  C      -78.740      79.770     174.146
  N      -77.660      79.774     174.995
  O      -81.766      74.432     178.131
  O      -82.575      74.861     175.721
  H      -77.510      79.592     179.412
  H      -82.721      74.265     178.262
  H      -74.745      82.947     172.528
  H      -79.614      79.170     174.322
  H      -76.374      78.736     176.226
  H      -77.994      80.680     177.471
  H      -73.083      82.897     174.177
  H      -80.051      79.521     176.927
  H      -73.304      81.876     175.561
  H      -78.698      76.937     177.862
  H      -81.217      77.079     177.218
  H      -80.637      77.240     175.543
  P      -80.896      80.101     179.340
  C      -80.740      82.672     179.681
  O      -80.046      81.445     179.529
  O      -81.306      79.693     180.837
  O      -82.100      80.220     178.465
  H      -82.244      79.916     180.994
  H      -80.128      83.342     180.296
  H      -81.709      82.532     180.164
  H      -80.886      83.122     178.699
  H      -79.696      71.818     175.076
  H      -79.167      73.478     175.211
  H      -80.589      73.089     174.274

 3  4  5  6  7  8  9  10  11  12  23  26  30  31 0
 6-311+G(2d,p)
 ****
 33  35  36  37  38 0
 6-311+G(2d,p)
 ****
 1  2  13  14  15  16  17  18  19  20  21  22  24  25 0
 3-21G
 ****
 27  28  29  32  34  39  40  41  42  43  44  45  46  47  48  49 0
 3-21G
 ****


