%nproc=1
%NoSave
%Mem=1900MB
#P OB98/GEN NMR

erre ene a

0 1
  C     -361.612      21.043     563.333
  O     -360.355      20.969     563.985
  H     -362.345      20.487     563.924
  H     -361.546      20.591     562.339
  H     -361.936      22.083     563.251
  P     -359.137      21.742     563.282
  C     -358.068      19.473     562.594
  O     -357.903      20.715     563.263
  C     -356.709      18.834     562.344
  O     -356.074      19.476     561.208
  C     -355.730      18.992     563.494
  O     -355.979      18.076     564.545
  C     -354.398      18.762     562.788
  O     -354.109      17.364     562.658
  C     -354.644      19.387     561.411
  N     -350.588      21.960     559.670
  C     -350.948      20.665     559.559
  N     -352.053      20.055     560.042
  C     -352.844      20.946     560.674
  C     -352.609      22.297     560.862
  C     -351.418      22.810     560.324
  N     -351.030      24.122     560.455
  N     -353.630      22.870     561.600
  C     -354.470      21.889     561.838
  N     -354.042      20.702     561.295
  O     -358.715      22.828     564.382
  O     -359.459      22.376     561.969
  H     -354.271      16.968     563.530
  H     -359.098      23.695     564.149
  H     -350.257      20.025     559.019
  H     -355.394      21.974     562.401
  H     -354.237      18.774     560.596
  H     -353.581      19.221     563.339
  H     -355.752      20.026     563.875
  H     -356.854      17.774     562.095
  H     -358.577      19.636     561.634
  H     -358.692      18.816     563.215
  H     -350.134      24.406     560.103
  H     -351.592      24.740     561.038
  P     -355.878      18.610     566.050
  C     -354.197      16.702     566.640
  O     -355.405      17.379     566.959
  O     -357.402      18.840     566.480
  O     -355.062      19.849     566.210
  H     -357.468      19.619     567.064
  H     -354.034      15.913     567.344
  H     -353.380      17.392     566.682
  H     -354.268      16.292     565.654

 6  7  8  9  10  11  12  13  14  15  25  28  32  33  34  35 0
 6-311+G(2d,p)
 ****
 36  37  40 0
 6-311+G(2d,p)
 ****
 1  2  3  4  5  16  17  18  19  20  21  22  23  24 0
 3-21G
 ****
 26  27  29  30  31  38  39 41  42  43  44  45  46  47  48 0
 3-21G
 ****


