%nproc=1
%NoSave
%Mem=1900MB
#P OB98/GEN NMR

erre ene a

0 1
  C      463.179     101.815    -237.959
  O      463.121     102.991    -237.174
  H      464.224     101.509    -238.053
  H      462.778     102.002    -238.958
  H      462.621     101.009    -237.478
  P      461.694     103.672    -236.921
  C      461.733     105.265    -238.952
  O      461.789     105.151    -237.536
  C      462.667     106.376    -239.429
  O      462.568     106.536    -240.856
  C      462.376     107.745    -238.819
  O      462.947     107.852    -237.525
  C      463.058     108.650    -239.832
  O      464.482     108.625    -239.623
  C      462.711     107.953    -241.161
  N      460.214     111.943    -243.068
  C      461.413     111.893    -242.381
  N      462.019     113.077    -242.142
  N      461.963     110.783    -241.957
  C      461.214     109.685    -242.205
  C      460.004     109.609    -242.859
  C      459.440     110.835    -243.382
  O      458.390     110.922    -244.017
  N      459.502     108.336    -242.838
  C      460.429     107.630    -242.219
  N      461.488     108.406    -241.804
  O      461.188     103.631    -235.512
  O      460.711     102.917    -237.935
  H      464.653     109.041    -238.758
  H      460.286     102.150    -237.508
  H      459.836     112.827    -243.362
  H      460.388     106.561    -242.046
  H      463.513     108.052    -241.902
  H      462.738     109.693    -239.755
  H      461.574     113.967    -242.307
  H      461.302     107.963    -238.812
  H      462.867     113.064    -241.589
  H      463.698     106.064    -239.212
  H      460.700     105.495    -239.222
  H      462.019     104.319    -239.425
  P      462.151     108.539    -236.310
  C      463.871     110.460    -236.101
  O      463.262     109.342    -235.475
  O      461.320     107.608    -235.501
  O      461.330     109.723    -236.994
  H      460.461     109.425    -237.367
  H      464.586     110.896    -235.435
  H      463.122     111.184    -236.344
  H      464.364     110.143    -236.996

 6  7  8  9  10  11  12  13  14  15  26  29  33  34 0
 6-311+G(2d,p)
 ****
 36  38  39  40  41 0
 6-311+G(2d,p)
 ****
 1  2  3  4  5  16  17  18  19  20  21  22  23  24  25 0
 3-21G
 ****
 27  28  30  31  32  35  37  42  43  44  45  46  47 0
 3-21G
 ****
 48  49 0
 3-21G
 ****


