%nproc=1
%NoSave
%Mem=1900MB
#P OB98/GEN NMR

erre ene a

0 1
  C      257.511      44.076       4.803
  O      258.062      43.442       5.939
  H      256.697      43.460       4.417
  H      258.271      44.179       4.024
  H      257.111      45.060       5.063
  P      259.142      44.235       6.820
  C      261.191      43.424       5.480
  O      260.391      44.535       5.860
  C      262.488      43.912       4.839
  O      262.197      44.785       3.727
  C      263.378      44.720       5.778
  O      264.051      43.872       6.689
  C      264.279      45.425       4.775
  O      265.322      44.552       4.321
  C      263.282      45.735       3.631
  N      262.780      47.107       3.663
  C      263.724      48.118       3.508
  O      264.929      47.897       3.388
  N      263.237      49.399       3.511
  C      261.940      49.760       3.736
  O      261.564      50.928       3.782
  C      260.991      48.654       3.928
  C      261.447      47.400       3.882
  O      259.494      43.612       8.130
  O      258.482      45.681       7.013
  H      265.782      45.021       3.595
  H      258.074      45.741       7.898
  H      263.909      50.143       3.413
  H      259.956      48.904       4.114
  H      260.763      46.570       4.028
  H      263.759      45.569       2.657
  H      264.766      46.308       5.195
  H      262.785      45.473       6.310
  H      263.026      43.037       4.449
  H      260.632      42.819       4.756
  H      261.400      42.818       6.366
  P      264.513      44.414       8.121
  C      266.901      44.516       7.199
  O      265.892      45.214       7.915
  O      264.545      43.393       9.211
  O      263.465      45.579       8.452
  H      262.836      45.274       9.136
  H      267.772      45.132       7.118
  H      266.542      44.275       6.220
  H      267.149      43.615       7.720

 6  7  8  9  10  11  12  13  14  15  16  26  31  32  33  34  35 0
 6-311+G(2d,p)
 ****
 36  37 0
 6-311+G(2d,p)
 ****
 1  2  3  4  5  17  18  19  20  21  22  23  24  25 0
 3-21G
 ****
 27  28  29  30  38  39  40  41  42  43  44  45 0
 3-21G
 ****


