%nproc=1
%NoSave
%Mem=1900MB
#P OB98/GEN NMR

erre ene a

0 1
  C       -2.116     -17.790      -0.003
  O       -2.383     -16.389      -0.121
  P       -3.467     -15.652       0.806
  C       -5.945     -14.981       0.779
  O       -4.934     -15.766       0.156
  C       -7.320     -15.129       0.112
  O       -7.383     -14.372      -1.127
  C       -7.720     -16.570      -0.232
  O       -9.144     -16.622      -0.118
  C       -7.296     -16.679      -1.687
  O       -7.922     -17.748      -2.381
  C       -7.682     -15.293      -2.193
  N       -7.235     -16.144      -7.222
  C       -8.168     -16.531      -6.327
  N       -8.239     -16.234      -5.014
  C       -7.237     -15.418      -4.651
  C       -6.218     -14.933      -5.456
  C       -6.232     -15.339      -6.801
  N       -5.259     -14.988      -7.709
  N       -5.349     -14.146      -4.725
  C       -5.832     -14.167      -3.499
  N       -6.974     -14.919      -3.403
  O       -3.088     -14.262       1.206
  O       -3.568     -16.583       2.106
  H       -7.721     -17.656      -3.330
  H       -3.547     -16.021       2.904
  H       -8.957     -17.169      -6.714
  H       -5.388     -13.677      -2.642
  H       -8.757     -15.228      -2.398
  H       -6.213     -16.841      -1.735
  H       -7.247     -17.318       0.407
  H       -8.061     -14.682       0.786
  H       -5.638     -13.929       0.745
  H       -5.304     -15.404      -8.625
  H       -4.439     -14.496      -7.384
  H       -6.016     -15.273       1.832
  P       -9.878     -17.734       0.769
  C      -11.008     -19.989       0.345
  O      -10.219     -18.953      -0.211
  O      -11.032     -17.235       1.573
  O       -8.723     -18.328       1.708
  H       -9.125     -18.780       2.472
  H      -10.390     -20.612       0.996
  H      -11.407     -20.605      -0.465
  H      -11.844     -19.578       0.920
  H       -1.364     -18.071      -0.711
  H       -3.012     -18.341      -0.197
  H       -1.772     -18.005       0.987

 3  4  5  6  7  8  9  10  11  12  22  25  29  30  31  32 0
 6-311+G(2d,p)
 ****
 33  36  37 0
 6-311+G(2d,p)
 ****
 1  2  13  14  15  16  17  18  19  20  21  23  24  26 0
 3-21G
 ****
 27  28  34  35  38  39  40  41  42  43  44  45  46  47  48 0
 3-21G
 ****


