%nproc=1
%NoSave
%Mem=1900MB
#P OB98/GEN NMR

erre ene a

0 1
  C       69.400     237.949     209.660
  O       69.209     236.717     210.328
  H       69.073     237.840     208.622
  H       70.460     238.217     209.669
  H       68.812     238.736     210.137
  P       69.465     236.703     211.908
  C       67.370     235.236     212.506
  O       68.040     236.486     212.620
  C       65.883     235.414     212.806
  O       65.206     236.075     211.719
  C       65.125     234.106     212.961
  O       65.441     233.430     214.156
  C       63.691     234.609     212.896
  O       63.284     235.175     214.150
  C       63.803     235.709     211.811
  N       63.271     235.279     210.526
  C       61.874     235.202     210.438
  O       61.175     235.498     211.408
  N       61.315     234.764     209.264
  C       62.071     234.457     208.262
  N       61.454     234.020     207.130
  C       63.546     234.549     208.301
  C       64.072     234.959     209.453
  O       69.788     238.236     212.225
  O       70.508     235.741     212.376
  H       62.386     235.530     214.013
  H       69.109     238.852     211.902
  H       64.137     234.289     207.435
  H       65.142     235.053     209.567
  H       63.259     236.612     212.121
  H       62.985     233.810     212.665
  H       65.294     233.463     212.086
  H       65.789     236.041     213.701
  H       60.445     233.950     207.144
  H       67.812     234.493     213.175
  H       61.942     233.720     206.297
  H       67.508     234.880     211.479
  P       66.166     231.997     214.116
  C       67.642     232.565     216.148
  O       67.619     232.211     214.768
  O       66.176     231.328     212.783
  O       65.402     231.168     215.255
  H       65.461     231.553     216.147
  H       68.656     232.680     216.470
  H       67.171     231.794     216.722
  H       67.116     233.486     216.289

 6  7  8  9  10  11  12  13  14  15  16  26  30  31  32  33  35 0
 6-311+G(2d,p)
 ****
 37  38 0
 6-311+G(2d,p)
 ****
 1  2  3  4  5  17  18  19  20  21  22  23  24  25 0
 3-21G
 ****
 27  28  29  34  36  39  40  41  42  43  44  45  46 0
 3-21G
 ****


