%nproc=1
%NoSave
%Mem=1900MB
#P OB98/GEN NMR

erre ene a

0 1
  C      -87.337     226.752     -34.054
  O      -87.232     225.435     -34.561
  H      -87.469     227.440     -34.893
  H      -86.422     227.021     -33.518
  H      -88.200     226.837     -33.389
  P      -87.219     224.246     -33.477
  C      -89.833     224.041     -33.662
  O      -88.565     223.410     -33.745
  C      -90.920     223.137     -34.247
  O      -90.416     222.528     -35.461
  C      -91.362     222.012     -33.307
  O      -92.768     221.808     -33.468
  C      -90.601     220.800     -33.823
  O      -91.241     219.577     -33.466
  C      -90.534     221.097     -35.329
  N      -89.422     220.405     -35.983
  C      -89.713     219.178     -36.589
  O      -90.853     218.714     -36.541
  N      -88.696     218.483     -37.197
  C      -87.479     218.939     -37.148
  N      -86.516     218.192     -37.754
  C      -87.120     220.205     -36.474
  C      -88.128     220.883     -35.929
  O      -87.522     225.039     -32.122
  O      -85.958     223.445     -33.464
  H      -90.760     218.839     -33.906
  H      -88.204     225.724     -32.215
  H      -86.091     220.535     -36.447
  H      -87.955     221.825     -35.421
  H      -91.467     220.793     -35.823
  H      -89.590     220.782     -33.397
  H      -91.135     222.209     -32.260
  H      -91.771     223.765     -34.540
  H      -86.803     217.320     -38.189
  H      -89.820     224.993     -34.205
  H      -85.532     218.421     -37.730
  H      -90.039     224.252     -32.608
  P      -93.767     222.297     -32.311
  C      -94.113     224.848     -32.464
  O      -94.597     223.568     -32.838
  O      -93.162     222.451     -30.953
  O      -94.888     221.139     -32.297
  H      -95.139     220.972     -31.366
  H      -94.749     225.604     -32.875
  H      -93.119     224.977     -32.838
  H      -94.106     224.929     -31.397

 6  7  8  9  10  11  12  13  14  15  16  26  30  31  32  33  35 0
 6-311+G(2d,p)
 ****
 37  38 0
 6-311+G(2d,p)
 ****
 1  2  3  4  5  17  18  19  20  21  22  23  24  25 0
 3-21G
 ****
 27  28  29  34  36  39  40  41  42  43  44  45  46 0
 3-21G
 ****


