%nproc=1
%NoSave
%Mem=1900MB
#P OB98/GEN NMR

erre ene a

0 1
  C      144.677     -98.640      15.122
  O      143.394     -99.165      14.825
  P      143.209    -100.760      14.885
  C      144.097    -100.987      12.454
  O      144.222    -101.391      13.810
  C      145.113    -101.716      11.572
  O      146.452    -101.457      12.081
  C      144.932    -103.244      11.519
  O      145.302    -103.658      10.199
  C      145.944    -103.720      12.548
  O      146.273    -105.095      12.443
  C      147.086    -102.741      12.281
  N      151.361    -104.783      14.205
  C      150.687    -105.019      13.055
  N      149.559    -104.432      12.606
  C      149.134    -103.499      13.475
  C      149.703    -103.158      14.693
  C      150.873    -103.848      15.053
  N      151.553    -103.610      16.232
  N      148.969    -102.174      15.322
  C      147.970    -101.923      14.499
  N      148.039    -102.682      13.363
  O      141.776    -100.983      14.211
  O      143.283    -101.353      16.258
  H      147.059    -105.292      12.989
  H      141.277    -101.688      14.665
  H      151.112    -105.785      12.412
  H      147.169    -101.218      14.683
  H      147.632    -102.990      11.361
  H      145.530    -103.565      13.551
  H      143.907    -103.565      11.722
  H      145.060    -101.294      10.561
  H      144.286     -99.911      12.375
  H      152.258    -104.287      16.487
  H      151.072    -103.068      16.940
  H      143.074    -101.174      12.112
  P      144.470    -104.837       9.495
  C      146.404    -106.364      10.230
  O      145.002    -106.170      10.219
  O      145.211    -104.925       8.076
  O      142.996    -104.639       9.416
  H      146.177    -104.990       8.178
  H      146.630    -107.248      10.834
  H      146.905    -105.495      10.668
  H      146.765    -106.530       9.211
  H      144.653     -97.573      15.044
  H      145.392     -99.032      14.429
  H      144.955     -98.918      16.117

 3  4  5  6  7  8  9  10  11  12  22  25  29  30  31  32 0
 6-311+G(2d,p)
 ****
 33  36  37 0
 6-311+G(2d,p)
 ****
 1  2  13  14  15  16  17  18  19  20  21  23  24  26 0
 3-21G
 ****
 27  28  34  35  38  39  40  41  42  43  44  45  46  47  48 0
 3-21G
 ****


