%nproc=1
%NoSave
%Mem=1900MB
#P OB98/GEN NMR

erre ene a

0 1
  C      297.724    -330.010     375.307
  O      297.394    -329.684     373.972
  H      298.184    -329.136     375.779
  H      298.448    -330.831     375.316
  H      296.832    -330.289     375.868
  P      296.563    -330.766     373.126
  C      294.803    -330.569     371.223
  O      295.922    -329.986     371.875
  C      294.191    -329.575     370.231
  O      293.463    -328.558     370.977
  C      295.225    -328.870     369.353
  O      294.682    -328.725     368.037
  C      295.367    -327.498     370.000
  O      295.810    -326.499     369.078
  C      293.955    -327.276     370.560
  N      293.968    -326.320     371.668
  C      294.388    -325.013     371.364
  O      294.724    -324.721     370.211
  N      294.458    -324.092     372.375
  C      294.232    -324.453     373.596
  N      294.347    -323.504     374.561
  C      293.855    -325.840     373.974
  C      293.736    -326.707     372.965
  O      295.294    -331.067     374.053
  O      297.310    -332.008     372.764
  H      295.044    -326.216     368.539
  H      294.987    -331.987     373.953
  H      293.700    -326.103     375.012
  H      293.472    -327.739     373.149
  H      293.284    -326.899     369.770
  H      296.097    -327.554     370.815
  H      296.179    -329.397     369.298
  H      293.450    -330.114     369.617
  H      294.624    -322.568     374.270
  H      294.050    -330.828     371.981
  H      294.238    -323.683     375.557
  H      295.120    -331.482     370.705
  P      294.656    -330.031     367.123
  C      292.555    -331.298     366.243
  O      293.268    -330.072     366.314
  O      294.509    -331.225     368.179
  O      295.884    -330.193     366.262
  H      295.354    -331.718     368.247
  H      291.660    -331.158     365.674
  H      292.302    -331.621     367.231
  H      293.166    -332.039     365.771

 6  7  8  9  10  11  12  13  14  15  16  26  30  31  32  33  35 0
 6-311+G(2d,p)
 ****
 37  38 0
 6-311+G(2d,p)
 ****
 1  2  3  4  5  17  18  19  20  21  22  23  24  25 0
 3-21G
 ****
 27  28  29  34  36  39  40  41  42  43  44  45  46 0
 3-21G
 ****


