%nproc=1
%NoSave
%Mem=1900MB
#P OB98/GEN NMR

erre ene a

0 1
  C     -336.850     450.720    -285.750
  O     -335.513     450.486    -285.335
  P     -334.810     451.607    -284.430
  C     -332.690     453.071    -284.802
  O     -333.817     452.428    -285.390
  C     -331.399     452.631    -285.500
  O     -331.080     451.269    -285.091
  C     -331.453     452.651    -287.037
  O     -330.143     453.020    -287.492
  C     -331.759     451.197    -287.354
  O     -331.492     450.844    -288.701
  C     -330.898     450.503    -286.306
  N     -331.062     445.835    -288.411
  C     -330.554     447.014    -288.857
  N     -330.541     448.212    -288.238
  C     -331.123     448.114    -287.026
  C     -331.695     447.004    -286.442
  C     -331.658     445.813    -287.185
  N     -332.175     444.619    -286.743
  N     -332.214     447.310    -285.200
  C     -331.964     448.589    -285.036
  N     -331.272     449.119    -286.098
  O     -333.797     450.758    -283.521
  O     -335.741     452.434    -283.602
  H     -331.769     449.925    -288.871
  H     -333.770     451.107    -282.610
  H     -330.098     446.983    -289.850
  H     -332.242     449.180    -284.170
  H     -329.832     450.525    -286.557
  H     -332.815     451.013    -287.186
  H     -332.193     453.364    -287.426
  H     -330.583     453.272    -285.138
  H     -332.626     452.791    -283.755
  H     -332.279     443.877    -287.427
  H     -332.801     444.665    -285.933
  H     -332.822     454.156    -284.863
  P     -329.957     453.456    -289.029
  C     -329.791     452.130    -291.223
  O     -330.053     452.074    -289.838
  O     -328.388     453.751    -289.067
  O     -330.823     454.587    -289.506
  H     -327.877     453.020    -288.700
  H     -329.791     451.111    -291.625
  H     -328.806     452.581    -291.407
  H     -330.570     452.717    -291.731
  H     -337.189     449.896    -286.343
  H     -336.891     451.618    -286.331
  H     -337.478     450.822    -284.890

 3  4  5  6  7  8  9  10  11  12  22  25  29  30  31  32 0
 6-311+G(2d,p)
 ****
 33  36  37 0
 6-311+G(2d,p)
 ****
 1  2  13  14  15  16  17  18  19  20  21  23  24  26 0
 3-21G
 ****
 27  28  34  35  38  39  40  41  42  43  44  45  46  47  48 0
 3-21G
 ****


