%nproc=1
%NoSave
%Mem=1900MB
#P OB98/GEN NMR

erre ene a

0 1
  C      357.545    -217.412     184.375
  O      357.264    -216.043     184.164
  H      356.620    -217.921     184.658
  H      358.268    -217.521     185.189
  H      357.938    -217.869     183.465
  P      358.477    -215.126     183.651
  C      359.024    -213.719     185.760
  O      359.389    -214.819     184.938
  C      360.147    -213.378     186.737
  O      360.337    -214.507     187.646
  C      361.502    -213.092     186.073
  O      362.167    -212.080     186.838
  C      362.254    -214.400     186.260
  O      363.669    -214.234     186.174
  C      361.747    -214.808     187.643
  N      365.126    -218.015     189.543
  C      365.152    -216.635     189.448
  N      366.247    -216.015     189.933
  N      364.186    -215.931     188.922
  C      363.136    -216.682     188.506
  C      362.988    -218.046     188.541
  C      364.079    -218.821     189.099
  O      364.120    -220.043     189.194
  N      361.790    -218.428     187.995
  C      361.211    -217.296     187.633
  N      361.992    -216.208     187.924
  O      357.756    -213.727     183.357
  O      359.209    -215.639     182.456
  H      364.086    -215.087     186.413
  H      357.493    -213.673     182.418
  H      365.899    -218.513     189.945
  H      360.245    -217.208     187.162
  H      362.222    -214.234     188.448
  H      361.947    -215.127     185.500
  H      367.006    -216.491     190.394
  H      361.433    -212.782     185.024
  H      366.264    -215.002     189.913
  H      359.826    -212.532     187.354
  H      358.122    -213.983     186.325
  H      358.806    -212.852     185.126
  P      362.130    -210.576     186.289
  C      364.590    -209.741     186.424
  O      363.550    -210.258     185.612
  O      362.182    -209.706     187.635
  O      360.930    -210.251     185.466
  H      361.742    -208.848     187.490
  H      365.464    -209.584     185.827
  H      364.812    -210.437     187.206
  H      364.279    -208.811     186.852

 6  7  8  9  10  11  12  13  14  15  26  29  33  34 0
 6-311+G(2d,p)
 ****
 36  38  39  40  41 0
 6-311+G(2d,p)
 ****
 1  2  3  4  5  16  17  18  19  20  21  22  23  24  25 0
 3-21G
 ****
 27  28  30  31  32  35  37  42  43  44  45  46  47 0
 3-21G
 ****
 48  49 0
 3-21G
 ****


