%nproc=1
%NoSave
%Mem=1900MB
#P OB98/GEN NMR

erre ene a

0 1
  C       24.878    -135.023    -160.968
  O       24.946    -135.478    -162.310
  P       23.641    -135.290    -163.227
  C       21.178    -136.069    -162.882
  O       22.561    -136.357    -162.703
  C       20.393    -137.358    -163.081
  O       20.849    -138.063    -164.255
  C       20.533    -138.357    -161.937
  O       19.683    -138.049    -160.844
  C       20.081    -139.641    -162.615
  O       18.642    -139.691    -162.663
  C       20.658    -139.479    -164.027
  N       22.817    -143.903    -165.212
  C       21.498    -143.502    -165.326
  N       20.623    -144.435    -165.763
  N       21.078    -142.298    -165.042
  C       22.063    -141.475    -164.608
  C       23.402    -141.753    -164.455
  C       23.852    -143.093    -164.762
  O       24.995    -143.523    -164.632
  N       24.091    -140.660    -164.002
  C       23.177    -139.721    -163.883
  N       21.922    -140.175    -164.196
  O       24.093    -135.892    -164.640
  O       23.158    -133.885    -163.347
  H       18.333    -139.777    -161.739
  H       23.486    -135.590    -165.343
  H       23.089    -144.845    -165.436
  H       23.371    -138.703    -163.557
  H       19.966    -139.842    -164.795
  H       20.414    -140.540    -162.088
  H       20.876    -145.397    -165.936
  H       21.579    -138.460    -161.625
  H       19.643    -144.190    -165.794
  H       19.339    -137.092    -163.234
  H       21.057    -135.424    -163.755
  H       20.808    -135.528    -162.003
  P       20.387    -137.872    -159.411
  C       21.731    -139.469    -157.864
  O       20.937    -139.327    -159.026
  O       19.144    -137.655    -158.426
  O       21.371    -136.752    -159.338
  H       19.419    -137.145    -157.640
  H       21.793    -140.531    -157.609
  H       21.298    -138.932    -157.018
  H       22.742    -139.099    -158.059
  H       25.811    -135.211    -160.480
  H       24.096    -135.542    -160.455
  H       24.675    -133.972    -160.957

 3  4  5  6  7  8  9  10  11  12  23  26  30  31 0
 6-311+G(2d,p)
 ****
 33  35  36  37  38 0
 6-311+G(2d,p)
 ****
 1  2  13  14  15  16  17  18  19  20  21  22  24  25 0
 3-21G
 ****
 27  28  29  32  34  39  40  41  42  43  44  45  46  47  48  49 0
 3-21G
 ****


