%nproc=1
%NoSave
%Mem=1900MB
#P OB98/GEN NMR

erre ene a

0 1
  C      206.970    -184.471     -34.910
  O      207.499    -184.681     -36.204
  H      206.354    -185.331     -34.636
  H      206.348    -183.572     -34.901
  H      207.779    -184.368     -34.182
  P      208.470    -183.537     -36.775
  C      210.401    -185.270     -37.033
  O      209.575    -184.298     -37.657
  C      211.470    -185.768     -38.018
  O      210.800    -186.350     -39.172
  C      212.387    -184.651     -38.548
  O      213.675    -185.219     -38.838
  C      211.701    -184.276     -39.852
  O      212.573    -183.544     -40.676
  C      211.304    -185.667     -40.340
  N      210.567    -185.069     -45.353
  C      211.694    -185.139     -44.607
  N      211.803    -185.308     -43.276
  C      210.588    -185.442     -42.710
  C      209.356    -185.392     -43.338
  C      209.369    -185.186     -44.727
  N      208.227    -185.093     -45.487
  N      208.336    -185.539     -42.414
  C      208.945    -185.685     -41.254
  N      210.306    -185.633     -41.385
  O      209.278    -183.064     -35.476
  O      207.795    -182.397     -37.460
  H      212.178    -183.390     -41.557
  H      208.828    -182.306     -35.061
  H      212.627    -185.041     -45.156
  H      208.459    -185.819     -40.295
  H      212.164    -186.233     -40.719
  H      210.818    -183.655     -39.667
  H      212.503    -183.817     -37.853
  H      212.047    -186.574     -37.547
  H      209.772    -186.109     -36.709
  H      210.890    -184.827     -36.161
  H      208.322    -184.920     -46.474
  H      207.328    -185.146     -45.031
  P      214.826    -185.164     -37.715
  C      215.403    -187.705     -37.868
  O      215.871    -186.366     -37.924
  O      214.032    -185.632     -36.402
  O      215.444    -183.824     -37.493
  H      214.248    -185.038     -35.660
  H      216.221    -188.376     -38.026
  H      214.665    -187.857     -38.628
  H      214.970    -187.891     -36.908

 6  7  8  9  10  11  12  13  14  15  25  28  32  33  34  35 0
 6-311+G(2d,p)
 ****
 36  37  40 0
 6-311+G(2d,p)
 ****
 1  2  3  4  5  16  17  18  19  20  21  22  23  24 0
 3-21G
 ****
 26  27  29  30  31  38  39 41  42  43  44  45  46  47  48 0
 3-21G
 ****


