%nproc=1
%NoSave
%Mem=1900MB
#P OB98/GEN NMR

erre ene a

0 1
  C     -891.440    -302.381    2275.752
  O     -891.890    -302.108    2274.437
  H     -891.920    -301.666    2276.434
  H     -890.360    -302.265    2275.817
  H     -891.720    -303.393    2276.059
  P     -891.480    -303.126    2273.268
  C     -893.780    -303.137    2272.073
  O     -892.830    -303.890    2272.828
  C     -895.110    -303.023    2272.838
  O     -894.860    -302.395    2274.123
  C     -896.180    -302.184    2272.119
  O     -897.460    -302.692    2272.496
  C     -895.930    -300.814    2272.733
  O     -896.960    -299.892    2272.443
  C     -895.750    -301.240    2274.192
  N     -895.160    -300.215    2275.063
  C     -896.050    -299.506    2275.898
  O     -897.260    -299.692    2275.924
  N     -895.480    -298.554    2276.690
  C     -894.150    -298.260    2276.769
  O     -893.690    -297.404    2277.514
  C     -893.280    -299.034    2275.872
  C     -893.810    -299.958    2275.078
  O     -890.330    -304.026    2273.540
  O     -891.210    -302.171    2272.010
  H     -890.250    -302.062    2271.895
  H     -897.800    -300.235    2272.795
  H     -896.100    -298.026    2277.290
  H     -892.200    -298.805    2275.908
  H     -893.190    -300.556    2274.409
  H     -896.690    -301.583    2274.630
  H     -895.010    -300.374    2272.315
  H     -896.100    -302.204    2271.021
  H     -895.490    -304.036    2273.057
  H     -893.940    -303.680    2271.133
  H     -893.370    -302.145    2271.872
  P     -897.980    -304.158    2272.089
  C     -898.330    -305.757    2274.131
  O     -897.410    -305.221    2273.177
  O     -897.680    -304.542    2270.687
  O     -899.570    -304.138    2272.380
  H     -900.000    -304.802    2271.799
  H     -897.817    -306.438    2274.778
  H     -899.114    -306.274    2273.619
  H     -898.748    -304.960    2274.710

 6  7  8  9  10  11  12  13  14  15  16  27  31  32  33  34  35 0
 6-311+G(2d,p)
 ****
 36  37 0
 6-311+G(2d,p)
 ****
 1  2  3  4  5  17  18  19  20  21  22  23  24  25 0
 3-21G
 ****
 26  28  29  30  38  39  40  41  42  43  44  45 0
 3-21G
 ****


