%nproc=1
%NoSave
%Mem=1900MB
#P OB98/GEN NMR

erre ene a

0 1
  C      334.312     623.296    -213.220
  O      335.287     622.294    -212.993
  H      334.103     623.346    -214.294
  H      334.706     624.261    -212.898
  H      333.385     623.063    -212.687
  P      335.522     621.836    -211.480
  C      338.108     621.985    -211.402
  O      336.977     621.139    -211.421
  C      339.278     621.323    -212.137
  O      339.893     620.337    -211.254
  C      338.870     620.590    -213.439
  O      339.882     620.784    -214.411
  C      338.825     619.130    -213.016
  O      339.034     618.242    -214.121
  C      339.927     619.090    -211.970
  N      342.094     614.886    -210.185
  C      342.588     615.864    -211.043
  N      343.854     615.684    -211.481
  N      341.904     616.923    -211.419
  C      340.680     616.981    -210.852
  C      340.066     616.085    -210.004
  C      340.828     614.907    -209.620
  O      340.420     614.001    -208.886
  N      338.797     616.490    -209.678
  C      338.628     617.632    -210.340
  N      339.757     617.972    -211.067
  O      334.512     620.606    -211.312
  O      335.280     622.889    -210.446
  H      339.900     618.484    -214.531
  H      333.830     620.830    -210.648
  H      342.650     614.100    -209.937
  H      337.733     618.228    -210.329
  H      340.931     618.977    -212.415
  H      337.851     618.900    -212.566
  H      344.455     614.915    -211.206
  H      337.907     620.937    -213.832
  H      344.253     616.397    -212.084
  H      340.041     622.083    -212.336
  H      338.400     622.183    -210.375
  H      337.854     622.941    -211.891
  P      339.527     621.751    -215.652
  C      338.753     619.891    -217.277
  O      339.700     620.902    -217.017
  O      340.756     622.778    -215.682
  O      338.226     622.460    -215.508
  H      340.466     623.650    -215.380
  H      338.987     619.414    -218.206
  H      337.776     620.324    -217.334
  H      338.777     619.168    -216.489

 6  7  8  9  10  11  12  13  14  15  26  29  33  34 0
 6-311+G(2d,p)
 ****
 36  38  39  40  41 0
 6-311+G(2d,p)
 ****
 1  2  3  4  5  16  17  18  19  20  21  22  23  24  25 0
 3-21G
 ****
 27  28  30  31  32  35  37  42  43  44  45  46  47 0
 3-21G
 ****
 48  49 0
 3-21G
 ****


