%nproc=1
%NoSave
%Mem=1900MB
#P OB98/GEN NMR

erre ene a

0 1
  C      -26.450    -132.210      24.326
  O      -26.356    -132.027      22.908
  P      -27.712    -132.044      22.054
  C      -26.547    -131.029      19.959
  O      -27.336    -132.081      20.496
  C      -25.264    -131.585      19.336
  O      -24.346    -132.064      20.340
  C      -25.496    -132.765      18.406
  O      -25.895    -132.339      17.111
  C      -24.106    -133.378      18.354
  O      -23.278    -132.637      17.436
  C      -23.610    -133.182      19.791
  N      -21.763    -137.759      21.157
  C      -21.346    -136.855      20.243
  N      -21.901    -135.667      19.924
  C      -22.992    -135.437      20.671
  C      -23.536    -136.264      21.639
  C      -22.875    -137.479      21.876
  N      -23.302    -138.395      22.810
  N      -24.668    -135.697      22.188
  C      -24.794    -134.539      21.573
  N      -23.810    -134.340      20.642
  O      -28.284    -130.562      22.257
  O      -28.695    -133.075      22.499
  H      -23.802    -132.503      16.625
  H      -29.259    -130.584      22.277
  H      -20.447    -137.121      19.694
  H      -25.574    -133.815      21.769
  H      -22.544    -132.928      19.833
  H      -24.115    -134.415      18.006
  H      -26.206    -133.478      18.845
  H      -24.776    -130.771      18.784
  H      -26.302    -130.307      20.743
  H      -22.759    -139.232      22.944
  H      -24.118    -138.180      23.365
  H      -27.139    -130.486      19.216
  P      -27.432    -132.556      16.709
  C      -27.866    -130.579      15.081
  O      -27.582    -131.956      15.232
  O      -28.199    -131.503      17.639
  O      -27.931    -133.947      16.908
  H      -29.093    -131.832      17.850
  H      -27.635    -130.284      14.054
  H      -27.264    -129.975      15.762
  H      -28.928    -130.399      15.270
  H      -25.471    -132.175      24.756
  H      -26.897    -133.160      24.534
  H      -27.052    -131.432      24.747

 3  4  5  6  7  8  9  10  11  12  22  25  29  30  31  32 0
 6-311+G(2d,p)
 ****
 33  36  37 0
 6-311+G(2d,p)
 ****
 1  2  13  14  15  16  17  18  19  20  21  23  24  26 0
 3-21G
 ****
 27  28  34  35  38  39  40  41  42  43  44  45  46  47  48 0
 3-21G
 ****


