%nproc=1
%NoSave
%Mem=1900MB
#P OB98/GEN NMR

erre ene a

0 1
  C     -644.613    -919.321    -664.244
  O     -643.215    -919.293    -664.564
  P     -642.674    -918.717    -665.955
  C     -640.221    -918.124    -665.438
  O     -641.539    -917.620    -665.665
  C     -639.637    -917.612    -664.110
  O     -640.360    -918.164    -662.995
  C     -638.169    -917.966    -663.894
  O     -637.328    -917.103    -664.626
  C     -638.064    -917.832    -662.371
  O     -637.890    -916.454    -662.000
  C     -639.429    -918.355    -661.909
  N     -638.810    -921.536    -657.961
  C     -638.818    -920.191    -658.037
  N     -638.978    -919.411    -659.133
  C     -639.182    -920.168    -660.219
  C     -639.200    -921.559    -660.298
  C     -638.997    -922.256    -659.089
  N     -638.975    -923.631    -659.018
  N     -639.399    -921.978    -661.596
  C     -639.525    -920.862    -662.293
  N     -639.406    -919.751    -661.501
  O     -643.738    -918.249    -666.890
  O     -641.857    -919.934    -666.611
  H     -636.970    -916.205    -662.205
  H     -641.869    -919.854    -667.583
  H     -638.671    -919.671    -657.099
  H     -639.715    -920.814    -663.353
  H     -639.812    -917.773    -661.060
  H     -637.210    -918.387    -661.960
  H     -637.990    -919.002    -664.174
  H     -639.778    -916.519    -664.088
  H     -639.581    -917.803    -666.266
  H     -638.791    -924.055    -658.121
  H     -639.070    -924.169    -659.870
  H     -640.260    -919.224    -665.429
  P     -636.881    -917.496    -666.118
  C     -636.817    -915.181    -667.236
  O     -637.521    -916.393    -667.101
  O     -637.116    -918.919    -666.507
  O     -635.330    -917.124    -666.154
  H     -634.868    -917.717    -666.789
  H     -637.045    -914.539    -666.366
  H     -637.135    -914.677    -668.136
  H     -635.733    -915.352    -667.279
  H     -644.748    -919.744    -663.270
  H     -645.132    -919.916    -664.966
  H     -645.002    -918.324    -664.257

 3  4  5  6  7  8  9  10  11  12  22  25  29  30  31  32 0
 6-311+G(2d,p)
 ****
 33  36  37 0
 6-311+G(2d,p)
 ****
 1  2  13  14  15  16  17  18  19  20  21  23  24  26 0
 3-21G
 ****
 27  28  34  35  38  39  40  41  42  43  44  45  46  47  48 0
 3-21G
 ****


