%nproc=1
%NoSave
%Mem=1900MB
#P OB98/GEN NMR

erre ene a

0 1
  C      433.274     393.653    1060.462
  O      433.142     393.087    1061.776
  P      431.887     393.396    1062.726
  C      433.149     394.646    1064.606
  O      432.198     394.753    1063.553
  C      433.088     395.833    1065.553
  O      433.699     397.017    1064.958
  C      431.664     396.250    1065.951
  O      431.149     395.408    1066.932
  C      431.890     397.704    1066.401
  O      432.397     397.752    1067.746
  C      432.986     398.189    1065.392
  N      431.415     402.766    1063.761
  C      431.958     402.364    1064.947
  N      432.325     401.117    1065.302
  C      432.149     400.255    1064.290
  C      431.642     400.514    1063.038
  C      431.260     401.858    1062.782
  N      430.710     402.274    1061.583
  N      431.583     399.386    1062.254
  C      432.091     398.438    1063.041
  N      432.442     398.917    1064.278
  O      431.469     392.260    1063.583
  O      430.717     393.838    1061.732
  H      432.621     398.680    1067.935
  H      429.858     393.624    1062.126
  H      432.067     403.132    1065.698
  H      432.201     397.396    1062.750
  H      433.721     398.838    1065.893
  H      430.980     398.302    1066.362
  H      431.019     396.257    1065.066
  H      433.657     395.596    1066.457
  H      434.165     394.598    1064.166
  H      430.442     403.234    1061.484
  H      430.532     401.584    1060.859
  H      432.975     393.720    1065.159
  P      430.042     394.314    1066.572
  C      428.046     395.205    1067.934
  O      428.620     395.058    1066.632
  O      430.118     393.024    1067.315
  O      430.237     394.098    1064.990
  H      429.974     393.179    1064.752
  H      427.581     394.269    1068.245
  H      427.295     395.988    1067.876
  H      428.804     395.508    1068.658
  H      434.184     393.310    1060.015
  H      433.293     394.720    1060.534
  H      432.444     393.350    1059.858

 3  4  5  6  7  8  9  10  11  12  22  25  29  30  31  32 0
 6-311+G(2d,p)
 ****
 33  36  37 0
 6-311+G(2d,p)
 ****
 1  2  13  14  15  16  17  18  19  20  21  23  24  26 0
 3-21G
 ****
 27  28  34  35  38  39  40  41  42  43  44  45  46  47  48 0
 3-21G
 ****


