%nproc=1
%NoSave
%Mem=1900MB
#P OB98/GEN NMR

erre ene a

0 1
  C       23.636    -214.489      12.521
  O       23.770    -213.087      12.390
  H       23.043    -214.864      11.683
  H       23.123    -214.732      13.455
  H       24.619    -214.966      12.501
  P       24.630    -212.338      13.517
  C       26.782    -212.482      12.065
  O       26.153    -212.794      13.302
  C       28.294    -212.620      12.209
  O       28.796    -211.592      13.097
  C       28.738    -213.940      12.825
  O       28.717    -215.006      11.893
  C       30.136    -213.583      13.306
  O       31.097    -213.686      12.249
  C       29.978    -212.122      13.742
  N       32.493    -212.555      18.163
  C       32.899    -212.665      16.880
  N       32.167    -212.523      15.754
  C       30.896    -212.207      16.054
  C       30.338    -212.056      17.312
  C       31.200    -212.241      18.407
  N       30.782    -212.153      19.714
  N       28.992    -211.769      17.216
  C       28.741    -211.738      15.923
  N       29.862    -211.993      15.182
  O       24.194    -213.090      14.861
  O       24.413    -210.866      13.608
  H       31.074    -214.615      11.948
  H       23.534    -212.550      15.337
  H       33.948    -212.912      16.738
  H       27.772    -211.546      15.478
  H       30.825    -211.501      13.428
  H       30.452    -214.250      14.109
  H       28.116    -214.177      13.696
  H       28.756    -212.473      11.224
  H       26.539    -211.452      11.783
  H       26.404    -213.162      11.294
  H       31.437    -212.366      20.448
  H       29.794    -212.034      19.906
  P       28.758    -216.500      12.468
  C       26.300    -216.313      13.321
  O       27.658    -216.592      13.631
  O       30.150    -216.569      13.254
  O       28.652    -217.567      11.432
  H       30.539    -217.461      13.161
  H       25.704    -216.419      14.203
  H       25.957    -216.998      12.574
  H       26.217    -215.312      12.953

 6  7  8  9  10  11  12  13  14  15  25  28  32  33  34  35 0
 6-311+G(2d,p)
 ****
 36  37  40 0
 6-311+G(2d,p)
 ****
 1  2  3  4  5  16  17  18  19  20  21  22  23  24 0
 3-21G
 ****
 26  27  29  30  31  38  39 41  42  43  44  45  46  47  48 0
 3-21G
 ****


