%nproc=1
%NoSave
%Mem=1900MB
#P OB98/GEN NMR

erre ene a

0 1
  C     -261.113     -75.675    -186.864
  O     -261.029     -74.386    -187.480
  P     -261.092     -73.103    -186.513
  C     -259.510     -71.668    -188.026
  O     -260.797     -71.832    -187.453
  C     -259.392     -72.462    -189.333
  O     -260.453     -72.061    -190.252
  C     -258.058     -72.282    -190.061
  O     -257.725     -73.554    -190.641
  C     -258.389     -71.283    -191.153
  O     -257.469     -71.336    -192.232
  C     -259.822     -71.709    -191.500
  N     -260.566     -70.667    -192.205
  C     -260.005     -70.179    -193.379
  O     -258.897     -70.525    -193.786
  N     -260.741     -69.237    -194.048
  C     -261.920     -68.695    -193.623
  O     -262.542     -67.854    -194.263
  C     -262.410     -69.169    -192.317
  C     -261.719     -70.119    -191.679
  O     -259.754     -73.285    -185.661
  O     -262.353     -73.034    -185.717
  H     -259.010     -73.645    -186.173
  H     -257.456     -72.245    -192.596
  H     -260.368     -68.892    -194.915
  H     -263.312     -68.718    -191.920
  H     -262.037     -70.472    -190.707
  H     -259.813     -72.609    -192.122
  H     -258.379     -70.264    -190.741
  H     -257.250     -71.958    -189.401
  H     -259.550     -73.523    -189.104
  H     -258.746     -72.024    -187.329
  H     -259.324     -70.603    -188.191
  P     -256.455     -74.355    -190.053
  C     -257.398     -76.728    -190.604
  O     -256.393     -75.765    -190.809
  O     -257.019     -74.744    -188.602
  O     -255.190     -73.563    -189.990
  H     -257.914     -75.117    -188.632
  H     -257.305     -77.503    -191.377
  H     -258.395     -76.287    -190.680
  H     -257.273     -77.197    -189.624
  H     -261.059     -76.434    -187.616
  H     -262.041     -75.759    -186.338
  H     -260.302     -75.795    -186.177

 3  4  5  6  7  8  9  10  11  12  13  24  28  29  30  31  32 0
 6-311+G(2d,p)
 ****
 33  34 0
 6-311+G(2d,p)
 ****
 1  2  14  15  16  17  18  19  20  21  22  23  25  26  27 0
 3-21G
 ****
 35  36  37  38  39  40  41  42  43  44  45 0
 3-21G
 ****


