%nproc=1
%NoSave
%Mem=1900MB
#P OB98/GEN NMR

erre ene a

0 1
  C       75.599     214.862    -332.677
  O       75.501     214.792    -331.267
  H       75.427     215.894    -332.988
  H       74.849     214.223    -333.145
  H       76.602     214.563    -333.003
  P       75.715     213.371    -330.560
  C       73.185     212.972    -330.908
  O       74.499     212.446    -331.055
  C       72.178     212.064    -331.614
  O       72.443     212.028    -333.029
  C       72.201     210.619    -331.126
  O       71.464     210.489    -329.922
  C       71.548     209.921    -332.308
  O       70.124     210.136    -332.271
  C       72.169     210.677    -333.494
  N       74.227     206.926    -336.220
  C       72.909     207.147    -335.868
  N       72.019     206.211    -336.262
  N       72.504     208.182    -335.172
  C       73.516     208.992    -334.788
  C       74.861     208.866    -335.057
  C       75.290     207.749    -335.873
  O       76.444     207.526    -336.218
  N       75.591     209.852    -334.438
  C       74.684     210.590    -333.825
  N       73.410     210.102    -333.996
  O       75.894     213.388    -329.071
  O       76.983     212.750    -331.312
  H       69.779     209.602    -331.530
  H       77.809     212.963    -330.843
  H       74.475     206.101    -336.734
  H       74.896     211.487    -333.257
  H       71.482     210.753    -334.347
  H       71.710     208.844    -332.316
  H       72.307     205.282    -336.539
  H       73.225     210.240    -331.022
  H       71.056     206.330    -335.975
  H       71.181     212.507    -331.481
  H       73.178     213.973    -331.353
  H       72.924     213.053    -329.848
  P       71.893     209.423    -328.797
  C       69.986     207.866    -329.576
  O       71.383     208.007    -329.351
  O       71.441     209.754    -327.416
  O       73.481     209.300    -328.948
  H       73.981     209.961    -328.407
  H       69.781     206.882    -329.942
  H       69.666     208.589    -330.297
  H       69.459     208.022    -328.658

 6  7  8  9  10  11  12  13  14  15  26  29  33  34 0
 6-311+G(2d,p)
 ****
 36  38  39  40  41 0
 6-311+G(2d,p)
 ****
 1  2  3  4  5  16  17  18  19  20  21  22  23  24  25 0
 3-21G
 ****
 27  28  30  31  32  35  37  42  43  44  45  46  47 0
 3-21G
 ****
 48  49 0
 3-21G
 ****


