%nproc=1
%NoSave
%Mem=1900MB
#P OB98/GEN NMR

erre ene a

0 1
  C       56.299    -291.385    -559.674
  O       55.707    -292.372    -560.501
  H       56.777    -290.639    -560.311
  H       57.057    -291.842    -559.031
  H       55.533    -290.899    -559.066
  P       54.927    -293.558    -559.753
  C       52.507    -293.163    -560.588
  O       53.445    -292.982    -559.538
  C       51.634    -294.390    -560.325
  O       52.443    -295.578    -560.226
  C       50.840    -294.323    -559.021
  O       49.671    -293.539    -559.184
  C       50.514    -295.791    -558.811
  O       49.400    -296.167    -559.648
  C       51.796    -296.497    -559.303
  N       54.857    -300.203    -557.507
  C       53.920    -300.208    -558.476
  N       53.113    -299.193    -558.871
  C       53.351    -298.088    -558.150
  C       54.278    -297.935    -557.128
  C       55.067    -299.053    -556.819
  N       56.030    -299.044    -555.829
  N       54.238    -296.653    -556.621
  C       53.334    -296.027    -557.354
  N       52.746    -296.863    -558.271
  O       55.604    -294.118    -558.550
  O       54.715    -294.594    -560.961
  H       49.185    -297.094    -559.454
  H       54.510    -294.118    -561.786
  H       53.797    -301.144    -559.010
  H       53.092    -294.981    -557.276
  H       51.565    -297.410    -559.860
  H       50.229    -296.009    -557.780
  H       51.461    -293.969    -558.192
  H       50.964    -294.518    -561.185
  H       53.029    -293.281    -561.545
  H       56.424    -299.930    -555.557
  H       56.095    -298.229    -555.240
  H       51.893    -292.265    -560.642
  P       49.209    -292.515    -558.040
  C       49.694    -290.221    -559.099
  O       50.142    -291.216    -558.183
  O       49.152    -293.084    -556.664
  O       47.778    -291.986    -558.524
  H       47.180    -291.881    -557.760
  H       50.390    -289.408    -559.111
  H       48.733    -289.863    -558.795
  H       49.623    -290.644    -560.079

 6  7  8  9  10  11  12  13  14  15  25  28  32  33  34  35 0
 6-311+G(2d,p)
 ****
 36  39  40 0
 6-311+G(2d,p)
 ****
 1  2  3  4  5  16  17  18  19  20  21  22  23  24 0
 3-21G
 ****
 26  27  29  30  31  37  38  41  42  43  44  45  46  47 0
 3-21G
 ****
 48 0
 3-21G
 ****


