%nproc=1
%NoSave
%Mem=1900MB
#P OB98/GEN NMR

erre ene a

0 1
  C      145.568     -99.532    -177.209
  O      146.596     -98.918    -177.969
  P      147.859     -99.817    -178.386
  C      149.685    -101.132    -177.073
  O      148.447    -100.444    -177.031
  C      150.400    -101.033    -175.723
  O      150.883     -99.676    -175.552
  C      149.524    -101.359    -174.508
  O      150.379    -101.953    -173.523
  C      149.077     -99.989    -174.033
  O      148.662     -99.988    -172.669
  C      150.327     -99.167    -174.321
  N      148.808     -94.999    -171.893
  C      148.901     -96.302    -171.441
  N      148.602     -96.507    -170.140
  N      149.256     -97.311    -172.194
  C      149.540     -96.948    -173.467
  C      149.449     -95.702    -174.042
  C      149.092     -94.591    -173.190
  O      149.083     -93.409    -173.528
  N      149.734     -95.745    -175.382
  C      150.073     -97.000    -175.597
  N      150.017     -97.756    -174.457
  O      148.950     -98.725    -178.801
  O      147.612    -100.822    -179.466
  H      149.330    -100.483    -172.154
  H      148.933     -98.559    -179.764
  H      148.548     -94.261    -171.262
  H      150.374     -97.413    -176.546
  H      151.086     -99.266    -173.536
  H      148.230     -99.647    -174.641
  H      148.351     -95.772    -169.496
  H      148.688    -102.025    -174.736
  H      148.693     -97.447    -169.775
  H      151.276    -101.691    -175.749
  H      150.320    -100.671    -177.837
  H      149.515    -102.177    -177.349
  P      149.696    -102.582    -172.217
  C      149.689    -102.056    -169.682
  O      150.045    -101.628    -170.981
  O      150.591    -103.884    -171.940
  O      148.258    -102.952    -172.379
  H      150.038    -104.583    -171.545
  H      150.319    -101.535    -168.956
  H      149.828    -103.133    -169.559
  H      148.643    -101.801    -169.489
  H      144.798     -98.817    -177.007
  H      145.973     -99.891    -176.286
  H      145.158    -100.352    -177.761

 3  4  5  6  7  8  9  10  11  12  23  26  30  31 0
 6-311+G(2d,p)
 ****
 33  35  36  37  38 0
 6-311+G(2d,p)
 ****
 1  2  13  14  15  16  17  18  19  20  21  22  24  25 0
 3-21G
 ****
 27  28  29  32  34  39  40  41  42  43  44  45  46  47  48  49 0
 3-21G
 ****


