%nproc=1
%NoSave
%Mem=1900MB
#P OB98/GEN NMR

erre ene a

0 1
  C      167.781    -632.139     -95.850
  O      169.102    -632.653     -95.948
  P      169.505    -633.876     -96.875
  C      168.606    -636.271     -97.385
  O      168.458    -635.084     -96.619
  C      168.467    -637.548     -96.531
  O      167.327    -637.412     -95.646
  C      168.161    -638.745     -97.441
  O      169.212    -639.444     -98.084
  C      167.214    -639.642     -96.615
  O      167.898    -640.706     -95.971
  C      166.635    -638.665     -95.582
  N      161.955    -640.533     -95.015
  C      163.146    -640.985     -94.472
  N      163.100    -642.179     -93.845
  N      164.267    -640.328     -94.540
  C      164.183    -639.196     -95.278
  C      163.050    -638.628     -95.861
  C      161.821    -639.352     -95.716
  O      160.757    -639.038     -96.272
  N      163.360    -637.511     -96.580
  C      164.665    -637.409     -96.486
  N      165.214    -638.423     -95.735
  O      170.957    -634.205     -96.976
  O      169.025    -633.345     -98.334
  H      167.258    -641.183     -95.399
  H      169.662    -633.693     -99.002
  H      161.141    -641.130     -94.987
  H      165.268    -636.635     -96.964
  H      166.784    -639.060     -94.571
  H      166.462    -640.098     -97.266
  H      162.286    -642.785     -93.905
  H      167.536    -638.371     -98.267
  H      163.975    -642.625     -93.580
  H      169.332    -637.687     -95.888
  H      169.602    -636.232     -97.858
  H      167.866    -636.285     -98.181
  P      169.159    -640.144     -99.517
  C      167.934    -642.107    -100.637
  O      168.158    -641.389     -99.428
  O      170.592    -640.841     -99.680
  O      168.903    -639.211    -100.670
  H      170.786    -640.990    -100.615
  H      167.041    -642.707    -100.540
  H      168.802    -642.752    -100.840
  H      167.803    -641.399    -101.486
  H      167.768    -631.319     -95.163
  H      167.124    -632.908     -95.500
  H      167.457    -631.803     -96.813

 3  4  5  6  7  8  9  10  11  12  23  26  30  31 0
 6-311+G(2d,p)
 ****
 33  35  36  37  38 0
 6-311+G(2d,p)
 ****
 1  2  13  14  15  16  17  18  19  20  21  22  24  25 0
 3-21G
 ****
 27  28  29  32  34  39  40  41  42  43  44  45  46  47  48  49 0
 3-21G
 ****


