%nproc=1
%NoSave
%Mem=1900MB
#P OB98/GEN NMR

erre ene a

0 1
  C      388.104    1164.635     541.224
  O      388.565    1163.937     542.385
  P      389.895    1164.423     543.113
  C      391.009    1162.098     543.275
  O      390.495    1163.213     543.986
  C      391.106    1160.851     544.190
  O      392.151    1161.050     545.190
  C      389.804    1160.580     544.937
  O      389.346    1159.223     544.806
  C      390.079    1161.040     546.357
  O      389.259    1160.415     547.333
  C      391.593    1160.804     546.483
  N      392.196    1161.652     547.513
  C      392.383    1161.074     548.765
  O      391.991    1159.921     549.046
  N      392.971    1161.875     549.709
  C      393.309    1163.181     549.556
  O      393.802    1163.886     550.444
  C      393.039    1163.766     548.231
  C      392.496    1162.975     547.275
  O      389.813    1165.738     543.826
  O      390.958    1164.506     541.897
  H      389.494    1159.454     547.361
  H      391.523    1165.298     542.052
  H      393.142    1161.483     550.626
  H      393.258    1164.811     548.072
  H      392.259    1163.380     546.298
  H      391.811    1159.756     546.753
  H      389.884    1162.119     546.420
  H      388.948    1161.163     544.524
  H      391.376    1160.007     543.550
  H      392.013    1162.346     542.910
  H      390.396    1161.916     542.388
  P      388.358    1158.681     543.659
  C      386.501    1158.104     545.378
  O      387.345    1157.653     544.312
  O      389.028    1158.206     542.405
  O      387.440    1159.969     543.323
  H      387.302    1160.028     542.361
  H      386.161    1157.242     545.932
  H      385.640    1158.622     544.944
  H      387.043    1158.774     546.051
  H      387.205    1164.178     540.867
  H      388.853    1164.592     540.461
  H      387.909    1165.656     541.476

 3  4  5  6  7  8  9  10  11  12  13  23  28  29  30  31  32 0
 6-311+G(2d,p)
 ****
 33  34 0
 6-311+G(2d,p)
 ****
 1  2  14  15  16  17  18  19  20  21  22  24  25  26  27 0
 3-21G
 ****
 35  36  37  38  39  40  41  42  43  44  45 0
 3-21G
 ****


