%nproc=1
%NoSave
%Mem=1900MB
#P OB98/GEN NMR

erre ene a

0 1
  C      132.730    -184.913    -104.846
  O      132.738    -185.787    -103.736
  H      133.744    -184.859    -105.252
  H      132.424    -183.910    -104.540
  H      132.063    -185.287    -105.627
  P      131.360    -186.039    -102.953
  C      132.230    -184.494    -101.063
  O      131.203    -184.746    -102.009
  C      132.552    -183.003    -101.018
  O      132.759    -182.470    -102.345
  C      131.455    -182.128    -100.422
  O      131.338    -182.234     -99.014
  C      131.944    -180.760    -100.861
  O      133.050    -180.355    -100.033
  C      132.404    -181.060    -102.307
  N      131.373    -180.762    -103.299
  C      131.307    -179.441    -103.758
  O      132.081    -178.588    -103.329
  N      130.336    -179.107    -104.675
  C      129.493    -180.006    -105.078
  N      128.550    -179.618    -105.980
  C      129.514    -181.404    -104.605
  C      130.469    -181.709    -103.729
  O      131.230    -187.359    -102.262
  O      130.221    -185.778    -104.048
  H      132.680    -180.120     -99.162
  H      129.346    -185.932    -103.616
  H      128.770    -182.106    -104.949
  H      130.544    -182.716    -103.330
  H      133.309    -180.492    -102.555
  H      131.182    -179.984    -100.783
  H      130.492    -182.324    -100.910
  H      133.500    -182.887    -100.473
  H      128.560    -178.653    -106.285
  H      133.112    -185.077    -101.353
  H      127.807    -180.231    -106.289
  H      131.909    -184.808    -100.066
  P      129.985    -182.891     -98.444
  C      129.514    -180.564     -97.361
  O      129.010    -181.671     -98.088
  O      130.432    -183.463     -97.023
  O      129.367    -183.937     -99.320
  H      130.618    -184.422     -97.078
  H      128.732    -179.849     -97.213
  H      130.313    -180.111     -97.910
  H      129.877    -180.897     -96.411

 6  7  8  9  10  11  12  13  14  15  16  26  30  31  32  33  35 0
 6-311+G(2d,p)
 ****
 37  38 0
 6-311+G(2d,p)
 ****
 1  2  3  4  5  17  18  19  20  21  22  23  24  25 0
 3-21G
 ****
 27  28  29  34  36  39  40  41  42  43  44  45  46 0
 3-21G
 ****


