%nproc=1
%NoSave
%Mem=1900MB
#P OB98/GEN NMR

erre ene a

0 1
  C       93.529     104.819      19.637
  O       92.719     103.846      19.006
  H       94.177     105.276      18.887
  H       94.147     104.351      20.404
  H       92.907     105.598      20.089
  P       91.658     103.084      19.943
  C       91.815     100.901      21.369
  O       92.305     101.651      20.259
  C       92.634      99.622      21.552
  O       92.323      98.710      20.455
  C       94.160      99.852      21.515
  O       94.793      98.856      22.340
  C       94.484      99.576      20.055
  O       95.868      99.362      19.892
  C       93.578      98.377      19.819
  N       94.055      94.797      16.212
  C       94.254      94.765      17.552
  N       94.094      95.762      18.447
  C       93.659      96.876      17.833
  C       93.405      97.058      16.485
  C       93.632      95.948      15.649
  N       93.446      95.984      14.288
  N       92.990      98.357      16.241
  C       92.982      98.939      17.418
  N       93.371      98.086      18.417
  O       90.459     102.744      18.935
  O       91.189     103.839      21.136
  H       96.098      99.240      18.953
  H       89.789     103.452      18.965
  H       94.591      93.810      17.952
  H       92.713      99.974      17.616
  H       93.954      97.455      20.292
  H       94.202     100.419      19.422
  H       94.452     100.853      21.850
  H       92.327      99.125      22.480
  H       90.763     100.655      21.179
  H       91.884     101.515      22.275
  H       93.659      95.152      13.756
  H       93.171      96.850      13.838
  P       95.850      99.327      23.459
  C       98.367     100.021      23.609
  O       97.294      99.570      22.793
  O       96.083      97.977      24.292
  O       95.381     100.419      24.369
  H       96.047      98.171      25.245
  H       99.248     100.130      23.012
  H       98.549      99.308      24.386
  H       98.112     100.965      24.044

 6  7  8  9  10  11  12  13  14  15  25  28  32  33  34  35 0
 6-311+G(2d,p)
 ****
 36  37  40 0
 6-311+G(2d,p)
 ****
 1  2  3  4  5  16  17  18  19  20  21  22  23  24 0
 3-21G
 ****
 26  27  29  30  31  38  39 41  42  43  44  45  46  47  48 0
 3-21G
 ****


