%nproc=1
%NoSave
%Mem=1900MB
#P OB98/GEN NMR

erre ene a

0 1
  C      132.587    -299.244     178.420
  O      132.748    -300.389     177.589
  P      133.325    -301.730     178.251
  C      131.170    -302.560     179.431
  O      132.469    -302.004     179.582
  C      130.880    -303.588     180.524
  O      129.495    -304.014     180.419
  C      131.750    -304.850     180.462
  O      131.955    -305.293     181.808
  C      130.858    -305.844     179.742
  O      131.249    -307.193     179.981
  C      129.497    -305.454     180.316
  N      126.626    -309.455     178.941
  C      127.634    -309.336     179.833
  N      128.349    -308.236     180.144
  C      127.937    -307.181     179.423
  C      126.946    -307.160     178.453
  C      126.268    -308.367     178.219
  N      125.236    -308.490     177.318
  N      126.828    -305.896     177.911
  C      127.728    -305.168     178.541
  N      128.402    -305.897     179.479
  O      134.749    -301.258     178.813
  O      133.465    -302.889     177.325
  H      131.295    -307.330     180.947
  H      135.467    -301.680     178.302
  H      127.893    -310.245     180.372
  H      127.927    -304.124     178.356
  H      129.339    -305.865     181.323
  H      130.899    -305.666     178.660
  H      132.711    -304.706     179.958
  H      130.992    -303.095     181.500
  H      131.114    -303.061     178.460
  H      124.711    -309.349     177.306
  H      124.837    -307.648     176.917
  H      130.426    -301.761     179.455
  P      133.218    -306.245     182.075
  C      134.762    -304.420     183.084
  O      134.517    -305.313     182.014
  O      133.310    -307.120     180.738
  O      133.087    -307.102     183.291
  H      133.720    -307.985     180.933
  H      135.841    -304.318     183.219
  H      134.316    -304.772     184.021
  H      134.340    -303.440     182.836
  H      132.196    -298.434     177.840
  H      133.535    -298.964     178.829
  H      131.909    -299.473     179.215

 3  4  5  6  7  8  9  10  11  12  22  25  29  30  31  32 0
 6-311+G(2d,p)
 ****
 33  36  37 0
 6-311+G(2d,p)
 ****
 1  2  13  14  15  16  17  18  19  20  21  23  24  26 0
 3-21G
 ****
 27  28  34  35  38  39  40  41  42  43  44  45  46  47  48 0
 3-21G
 ****


