%nproc=1
%NoSave
%Mem=1900MB
#P OB98/GEN NMR

erre ene a

0 1
  C     -287.048     279.490     239.627
  O     -286.579     280.767     240.007
  H     -287.624     279.586     238.704
  H     -287.698     279.076     240.404
  H     -286.205     278.818     239.450
  P     -285.793     280.867     241.400
  C     -283.525     281.655     240.406
  O     -284.651     281.975     241.214
  C     -282.748     282.929     240.088
  O     -283.516     283.760     239.184
  C     -282.467     283.804     241.301
  O     -281.378     283.332     242.077
  C     -282.168     285.134     240.633
  O     -280.798     285.221     240.214
  C     -283.121     285.125     239.424
  N     -284.270     286.002     239.636
  C     -284.092     287.330     239.265
  O     -283.046     287.764     238.787
  N     -285.153     288.162     239.501
  C     -286.326     287.812     240.102
  O     -287.216     288.624     240.335
  C     -286.451     286.398     240.490
  C     -285.432     285.570     240.245
  O     -284.982     279.490     241.462
  O     -286.661     281.057     242.600
  H     -285.395     278.892     242.112
  H     -280.261     285.061     241.015
  H     -285.045     289.129     239.236
  H     -287.368     286.086     240.971
  H     -285.496     284.524     240.530
  H     -282.598     285.463     238.521
  H     -282.349     285.962     241.315
  H     -283.372     283.907     241.913
  H     -281.812     282.650     239.587
  H     -283.862     281.202     239.468
  H     -282.898     280.934     240.939
  P     -281.245     283.868     243.583
  C     -282.326     281.790     244.785
  O     -281.166     282.560     244.507
  O     -282.720     284.445     243.819
  O     -280.140     284.853     243.760
  H     -283.378     283.990     243.269
  H     -282.064     280.965     245.414
  H     -282.738     281.423     243.869
  H     -283.050     282.402     245.282

 6  7  8  9  10  11  12  13  14  15  16  27  31  32  33  34  35 0
 6-311+G(2d,p)
 ****
 36  37 0
 6-311+G(2d,p)
 ****
 1  2  3  4  5  17  18  19  20  21  22  23  24  25 0
 3-21G
 ****
 26  28  29  30  38  39  40  41  42  43  44  45 0
 3-21G
 ****


