%nproc=1
%NoSave
%Mem=1900MB
#P OB98/GEN NMR

erre ene a

0 1
  C      225.610      50.249    -147.766
  O      226.939      49.904    -147.429
  H      225.392      49.952    -148.794
  H      224.928      49.717    -147.095
  H      225.455      51.325    -147.646
  P      228.106      50.589    -148.293
  C      228.269      48.825    -150.197
  O      227.852      50.126    -149.811
  C      227.914      48.583    -151.661
  O      226.488      48.718    -151.855
  C      228.556      49.568    -152.631
  O      229.897      49.220    -152.941
  C      227.653      49.397    -153.843
  O      227.988      48.179    -154.532
  C      226.270      49.274    -153.185
  N      221.679      51.533    -153.099
  C      222.047      50.243    -153.265
  N      223.292      49.721    -153.280
  C      224.211      50.687    -153.100
  C      223.987      52.040    -152.926
  C      222.644      52.464    -152.922
  N      222.266      53.778    -152.769
  N      225.184      52.726    -152.807
  C      226.109      51.789    -152.875
  N      225.572      50.542    -153.060
  O      229.413      49.762    -147.879
  O      228.275      52.060    -148.107
  H      227.317      48.054    -155.226
  H      230.214      50.281    -148.082
  H      221.232      49.534    -153.406
  H      227.174      51.962    -152.795
  H      225.608      48.586    -153.724
  H      227.743      50.211    -154.563
  H      228.481      50.602    -152.272
  H      228.190      47.550    -151.912
  H      227.758      48.083    -149.575
  H      221.298      53.995    -152.967
  H      222.983      54.492    -152.788
  H      229.350      48.734    -150.049
  P      230.887      50.410    -153.364
  C      230.521      49.777    -155.865
  O      230.491      50.796    -154.869
  O      232.295      49.670    -153.531
  O      230.951      51.547    -152.396
  H      233.035      50.287    -153.379
  H      230.233      50.192    -156.808
  H      229.841      48.996    -155.597
  H      231.511      49.378    -155.938

 6  7  8  9  10  11  12  13  14  15  25  28  32  33  34  35 0
 6-311+G(2d,p)
 ****
 36  39  40 0
 6-311+G(2d,p)
 ****
 1  2  3  4  5  16  17  18  19  20  21  22  23  24 0
 3-21G
 ****
 26  27  29  30  31  37  38  41  42  43  44  45  46  47 0
 3-21G
 ****
 48 0
 3-21G
 ****


