%nproc=1
%NoSave
%Mem=1900MB
#P OB98/GEN NMR

erre ene a

0 1
  C        1.255     137.406     108.130
  O        0.893     136.551     107.055
  P        0.092     135.207     107.408
  C       -1.508     135.731     105.442
  O       -0.670     134.765     106.065
  C       -2.035     135.214     104.109
  O       -0.980     135.321     103.113
  C       -2.497     133.749     104.135
  O       -3.732     133.629     103.415
  C       -1.425     133.024     103.338
  O       -1.916     131.821     102.755
  C       -1.045     134.110     102.332
  N        1.093     133.775      97.769
  C       -0.142     134.277      98.131
  N       -0.940     134.693      97.122
  N       -0.561     134.358      99.365
  C        0.355     133.934     100.272
  C        1.613     133.428     100.038
  C        2.039     133.287      98.661
  O        3.083     132.769      98.273
  N        2.252     133.122     101.213
  C        1.384     133.437     102.154
  N        0.198     133.888     101.630
  O       -1.085     135.734     108.357
  O        0.891     134.145     108.079
  H       -2.211     131.249     103.487
  H       -1.061     135.256     109.210
  H        1.358     133.720      96.801
  H        1.555     133.326     103.219
  H       -1.836     134.231     101.580
  H       -0.589     132.777     104.001
  H       -0.667     134.692      96.152
  H       -2.615     133.334     105.142
  H       -1.842     135.084      97.368
  H       -2.851     135.871     103.779
  H       -0.931     136.647     105.271
  H       -2.343     135.960     106.114
  P       -4.992     133.102     104.261
  C       -6.461     135.180     103.707
  O       -6.279     133.782     103.593
  O       -4.840     133.862     105.662
  O       -5.040     131.618     104.415
  H       -5.287     133.363     106.370
  H       -5.581     135.680     104.124
  H       -7.317     135.375     104.357
  H       -6.666     135.593     102.716
  H        1.780     138.257     107.748
  H        1.885     136.874     108.812
  H        0.372     137.731     108.640

 3  4  5  6  7  8  9  10  11  12  23  26  30  31  33  0
 6-311+G(2d,p)
 ****
 35  36  37  38 0
 6-311+G(2d,p)
 ****
 1  2  13  14  15  16  17  18  19  20  21  22  24  25  27  28  29 0
 3-21G
 ****
 32  34  39  40  41  42  43  44  45  46  47  48  49 0
 3-21G
 ****


