%nproc=1
%NoSave
%Mem=1900MB
#P OB98/GEN NMR

erre ene a

0 1
  C       -9.424     -14.821      -5.924
  O       -9.808     -15.460      -7.128
  P      -11.341     -15.377      -7.582
  C      -12.962     -13.416      -8.117
  O      -11.821     -13.857      -7.398
  C      -13.935     -12.695      -7.182
  O      -14.531     -13.662      -6.267
  C      -13.283     -11.599      -6.327
  O      -14.254     -10.558      -6.145
  C      -13.046     -12.310      -5.008
  O      -12.865     -11.420      -3.918
  C      -14.316     -13.164      -4.932
  N      -14.211     -14.251      -3.960
  C      -14.593     -13.978      -2.652
  O      -15.008     -12.885      -2.270
  N      -14.425     -14.999      -1.756
  C      -13.843     -16.206      -2.012
  O      -13.615     -17.034      -1.139
  C      -13.458     -16.439      -3.413
  C      -13.657     -15.469      -4.308
  O      -12.110     -16.162      -6.419
  O      -11.624     -15.955      -8.928
  H      -12.733     -11.960      -3.118
  H      -12.323     -17.070      -6.704
  H      -14.708     -14.822      -0.805
  H      -13.013     -17.395      -3.656
  H      -13.364     -15.606      -5.343
  H      -15.179     -12.535      -4.681
  H      -12.149     -12.933      -5.087
  H      -12.365     -11.192      -6.760
  H      -14.750     -12.274      -7.784
  H      -13.462     -14.278      -8.559
  H      -12.649     -12.755      -8.933
  P      -13.717      -9.065      -5.893
  C      -12.300      -7.418      -7.345
  O      -12.668      -8.751      -7.060
  O      -12.799      -9.294      -4.600
  O      -14.804      -8.063      -5.685
  H      -12.256     -10.096      -4.664
  H      -12.278      -6.804      -6.441
  H      -13.012      -6.990      -8.054
  H      -11.306      -7.415      -7.798
  H       -8.377     -14.967      -5.761
  H       -9.974     -15.240      -5.107
  H       -9.632     -13.774      -5.994

 3  4  5  6  7  8  9  10  11  12  13  23  28  29  30  31  32 0
 6-311+G(2d,p)
 ****
 33  34 0
 6-311+G(2d,p)
 ****
 1  2  14  15  16  17  18  19  20  21  22  24  25  26 0
 3-21G
 ****
 27  35  36  37  38  39  40  41  42  43  44  45 0
 3-21G
 ****


