%nproc=1
%NoSave
%Mem=1900MB
#P OB98/GEN NMR

erre ene a

0 1
  C     -272.548      78.435     602.209
  O     -273.124      79.550     602.861
  H     -271.638      78.752     601.705
  H     -273.249      78.051     601.461
  H     -272.302      77.649     602.928
  P     -274.296      79.259     603.918
  C     -276.477      79.763     602.600
  O     -275.576      78.768     603.073
  C     -277.476      79.148     601.617
  O     -278.474      78.399     602.369
  C     -278.219      80.183     600.760
  O     -278.376      79.661     599.437
  C     -279.576      80.294     601.436
  O     -280.599      80.735     600.540
  C     -279.768      78.879     601.955
  N     -283.867      76.546     603.754
  C     -283.099      76.274     602.631
  N     -283.489      75.224     601.872
  N     -282.045      76.963     602.293
  C     -281.761      77.964     603.159
  C     -282.430      78.341     604.294
  C     -283.618      77.581     604.647
  O     -284.352      77.790     605.612
  N     -281.843      79.429     604.890
  C     -280.808      79.709     604.120
  N     -280.708      78.840     603.058
  O     -274.711      80.724     604.411
  O     -273.920      78.382     605.065
  H     -280.597      80.124     599.770
  H     -274.508      80.817     605.363
  H     -284.679      75.983     603.959
  H     -280.116      80.519     604.282
  H     -280.154      78.197     601.181
  H     -279.517      81.009     602.264
  H     -284.252      74.612     602.105
  H     -277.708      81.145     600.711
  H     -282.916      74.981     601.070
  H     -276.950      78.427     600.986
  H     -275.906      80.551     602.098
  H     -277.014      80.197     603.450
  P     -277.325      80.155     598.329
  C     -278.565      81.886     596.839
  O     -277.683      81.679     597.938
  O     -277.753      79.327     597.025
  O     -275.895      79.908     598.697
  H     -277.083      78.632     596.844
  H     -278.713      82.936     596.693
  H     -279.505      81.418     597.043
  H     -278.139      81.460     595.955

 6  7  8  9  10  11  12  13  14  15  26  29  33  34 0
 6-311+G(2d,p)
 ****
 36  38  39  40  41 0
 6-311+G(2d,p)
 ****
 1  2  3  4  5  16  17  18  19  20  21  22  23  24  25 0
 3-21G
 ****
 27  28  30  31  32  35  37  42  43  44  45  46  47 0
 3-21G
 ****
 48  49 0
 3-21G
 ****


