%nproc=1
%NoSave
%Mem=1900MB
#P OB98/GEN NMR

erre ene a

0 1
  C      -75.579     201.160    -231.774
  O      -74.747     202.319    -231.717
  P      -75.364     203.712    -231.223
  C      -74.145     205.184    -232.971
  O      -74.351     204.902    -231.587
  C      -72.979     206.163    -233.137
  O      -73.192     207.380    -232.373
  C      -71.658     205.607    -232.610
  O      -71.078     204.546    -233.340
  C      -70.828     206.864    -232.436
  O      -70.223     207.275    -233.657
  C      -71.900     207.884    -231.985
  N      -71.850     208.163    -230.546
  C      -71.235     209.354    -230.177
  O      -70.713     210.125    -230.980
  N      -71.205     209.613    -228.832
  C      -71.689     208.803    -227.849
  O      -71.615     209.075    -226.654
  C      -72.308     207.548    -228.298
  C      -72.361     207.287    -229.609
  O      -75.887     203.727    -229.826
  O      -76.567     203.954    -232.267
  H      -69.728     208.097    -233.479
  H      -77.325     204.311    -231.765
  H      -70.764     210.477    -228.542
  H      -72.696     206.874    -227.543
  H      -72.811     206.367    -229.966
  H      -71.765     208.840    -232.510
  H      -70.015     206.714    -231.712
  H      -71.843     205.205    -231.604
  H      -72.902     206.441    -234.190
  H      -75.056     205.606    -233.398
  H      -73.956     204.243    -233.500
  P      -70.478     203.231    -232.646
  C      -68.327     202.723    -234.010
  O      -69.676     202.392    -233.759
  O      -71.373     202.465    -231.728
  O      -69.268     203.857    -231.782
  H      -69.172     203.322    -230.965
  H      -67.948     202.068    -234.801
  H      -67.728     202.576    -233.111
  H      -68.245     203.764    -234.342
  H      -75.006     200.326    -232.123
  H      -76.394     201.339    -232.444
  H      -75.961     200.946    -230.797

 3  4  5  6  7  8  9  10  11  12  13  23  28  29  30  31  32 0
 6-311+G(2d,p)
 ****
 33  34 0
 6-311+G(2d,p)
 ****
 1  2  14  15  16  17  18  19  20  21  22  24  25  26  27 0
 3-21G
 ****
 35  36  37  38  39  40  41  42  43  44  45 0
 3-21G
 ****


