%nproc=1
%NoSave
%Mem=1900MB
#P OB98/GEN NMR

erre ene a

0 1
  C     -199.852     323.669     342.081
  O     -199.622     322.363     342.617
  P     -198.123     321.798     342.486
  C     -197.005     322.187     344.789
  O     -197.185     322.661     343.464
  C     -195.938     322.998     345.535
  O     -194.610     322.737     344.991
  C     -196.156     324.514     345.469
  O     -195.706     325.056     346.717
  C     -195.203     324.943     344.369
  O     -194.927     326.339     344.431
  C     -194.025     324.018     344.674
  N     -189.134     324.163     343.424
  C     -189.755     324.432     344.630
  N     -188.946     324.734     345.669
  N     -191.050     324.402     344.802
  C     -191.728     324.047     343.683
  C     -191.230     323.742     342.438
  C     -189.797     323.808     342.256
  O     -189.198     323.578     341.212
  N     -192.236     323.395     341.564
  C     -193.338     323.561     342.276
  N     -193.084     323.899     343.575
  O     -197.686     322.270     341.021
  O     -198.025     320.319     342.647
  H     -194.344     326.561     343.673
  H     -197.762     321.526     340.393
  H     -188.134     324.217     343.343
  H     -194.341     323.422     341.905
  H     -193.445     324.358     345.540
  H     -195.633     324.717     343.386
  H     -187.939     324.725     345.618
  H     -197.190     324.815     345.276
  H     -189.371     324.895     346.574
  H     -195.931     322.672     346.582
  H     -196.707     321.137     344.774
  H     -197.966     322.222     345.315
  P     -196.744     325.093     347.936
  C     -195.198     323.841     349.592
  O     -196.419     323.840     348.879
  O     -198.130     324.688     347.242
  O     -196.855     326.416     348.620
  H     -198.854     325.213     347.628
  H     -195.316     323.229     350.490
  H     -194.903     324.852     349.891
  H     -194.413     323.406     348.970
  H     -200.878     323.938     342.224
  H     -199.626     323.670     341.035
  H     -199.225     324.376     342.582

 3  4  5  6  7  8  9  10  11  12  23  26  30  31 0
 6-311+G(2d,p)
 ****
 33  35  36  37  38 0
 6-311+G(2d,p)
 ****
 1  2  13  14  15  16  17  18  19  20  21  22  24  25 0
 3-21G
 ****
 27  28  29  32  34  39  40  41  42  43  44  45  46  47  48  49 0
 3-21G
 ****


