%nproc=1
%NoSave
%Mem=1900MB
#P OB98/GEN NMR

erre ene a

0 1
  C     -207.851    -279.641    -360.984
  O     -208.630    -280.067    -362.116
  P     -209.156    -279.065    -363.252
  C     -211.397    -278.173    -364.173
  O     -210.760    -279.006    -363.207
  C     -212.903    -278.442    -364.257
  O     -213.149    -279.723    -364.928
  C     -213.624    -278.502    -362.892
  O     -214.891    -277.876    -363.073
  C     -213.756    -280.005    -362.673
  O     -214.735    -280.349    -361.709
  C     -214.083    -280.445    -364.101
  N     -213.988    -281.882    -364.347
  C     -215.075    -282.679    -363.958
  O     -216.042    -282.208    -363.382
  N     -215.019    -284.032    -364.228
  C     -213.978    -284.534    -364.815
  N     -213.997    -285.881    -365.052
  C     -212.812    -283.739    -365.223
  C     -212.886    -282.434    -364.965
  O     -208.610    -279.363    -364.609
  O     -208.707    -277.603    -362.770
  H     -208.463    -277.071    -363.561
  H     -214.698    -281.320    -361.581
  H     -211.975    -284.201    -365.723
  H     -212.077    -281.769    -365.261
  H     -215.089    -280.095    -364.374
  H     -212.794    -280.397    -362.329
  H     -213.081    -277.977    -362.100
  H     -213.352    -277.673    -364.890
  H     -214.825    -286.397    -364.769
  H     -210.943    -278.373    -365.154
  H     -213.248    -286.376    -365.514
  H     -211.206    -277.121    -363.920
  P     -215.166    -276.435    -362.437
  C     -215.760    -275.509    -360.071
  O     -215.496    -276.636    -360.877
  O     -216.618    -276.072    -363.033
  O     -214.190    -275.357    -362.785
  H     -216.724    -275.109    -363.061
  H     -216.626    -275.722    -359.435
  H     -215.972    -274.613    -360.660
  H     -214.890    -275.320    -359.424
  H     -207.621    -280.487    -360.370
  H     -208.410    -278.928    -360.414
  H     -206.942    -279.191    -361.325

 3  4  5  6  7  8  9  10  11  12  13  24  27  28  29  30  32 0
 6-311+G(2d,p)
 ****
 34  35 0
 6-311+G(2d,p)
 ****
 1  2  14  15  16  17  18  19  20  21  22  23  25  26 0
 3-21G
 ****
 31  33  36  37  38  39  40  41  42  43  44  45  46 0
 3-21G
 ****


