%nproc=1
%NoSave
%Mem=1900MB
#P OB98/GEN NMR

erre ene a

0 1
  C     1870.225       3.778      75.663
  O     1869.866       4.214      76.980
  P     1868.896       3.262      77.823
  C     1870.877       2.691      79.424
  O     1869.851       2.206      78.555
  C     1870.411       2.667      80.874
  O     1870.194       1.327      81.302
  C     1871.406       3.254      81.843
  O     1871.384       4.672      81.796
  C     1870.910       2.678      83.164
  O     1869.905       3.503      83.756
  C     1870.351       1.297      82.742
  N     1871.166       0.196      83.175
  C     1871.285       0.029      84.560
  O     1870.727       0.806      85.315
  N     1872.075      -1.004      85.029
  C     1872.696      -1.782      84.194
  N     1873.443      -2.776      84.724
  C     1872.605      -1.620      82.732
  C     1871.846      -0.634      82.286
  O     1868.156       2.409      76.710
  O     1867.931       4.001      78.717
  H     1869.271       2.899      84.187
  H     1867.273       2.115      77.018
  H     1873.127      -2.311      82.082
  H     1871.723      -0.434      81.230
  H     1869.349       1.168      83.163
  H     1871.729       2.605      83.904
  H     1872.418       2.882      81.634
  H     1869.448       3.210      80.931
  H     1873.488      -2.853      85.734
  H     1871.120       3.722      79.121
  H     1873.938      -3.457      84.152
  H     1871.764       2.076      79.288
  P     1872.747       5.435      81.453
  C     1872.178       5.942      78.993
  O     1872.977       5.174      79.879
  O     1873.851       4.476      82.114
  O     1872.880       6.843      81.918
  H     1874.724       4.894      82.041
  H     1872.537       5.783      77.976
  H     1872.238       7.004      79.239
  H     1871.134       5.611      79.050
  H     1870.872       4.501      75.212
  H     1869.341       3.671      75.069
  H     1870.730       2.836      75.724

 3  4  5  6  7  8  9  10  11  12  13  21  23  27  28  29  30  32 0
 6-311+G(2d,p)
 ****
 34  35 0
 6-311+G(2d,p)
 ****
 1  2  14  15  16  17  18  19  20  22  24  25  26 0
 3-21G
 ****
 31  33  36  37  38  39  40  41  42  43  44  45  46 0
 3-21G
 ****


