%nproc=1
%NoSave
%Mem=1900MB
#P OB98/GEN NMR

erre ene a

0 1
  C      464.014     -54.087     -48.040
  O      465.159     -54.523     -48.746
  H      463.173     -54.033     -48.735
  H      464.190     -53.094     -47.617
  H      463.767     -54.795     -47.243
  P      466.505     -54.685     -47.890
  C      465.807     -56.905     -46.713
  O      466.102     -55.524     -46.582
  C      467.062     -57.746     -46.451
  O      467.455     -57.577     -45.056
  C      466.857     -59.253     -46.674
  O      468.123     -59.818     -47.064
  C      466.499     -59.727     -45.276
  O      466.585     -61.130     -45.179
  C      467.490     -58.895     -44.466
  N      468.762     -60.557     -39.801
  C      469.322     -60.762     -41.012
  N      468.933     -60.277     -42.209
  C      467.858     -59.482     -42.074
  C      467.183     -59.172     -40.905
  C      467.675     -59.751     -39.723
  N      467.102     -59.550     -38.487
  N      466.119     -58.326     -41.166
  C      466.156     -58.132     -42.469
  N      467.182     -58.816     -43.058
  O      466.767     -53.209     -47.332
  O      467.682     -55.218     -48.637
  H      466.531     -61.418     -44.243
  H      467.389     -52.738     -47.916
  H      470.198     -61.408     -41.021
  H      465.463     -57.517     -43.032
  H      468.513     -59.275     -44.562
  H      465.467     -59.459     -45.026
  H      466.107     -59.483     -47.436
  H      467.885     -57.359     -47.061
  H      465.444     -57.088     -47.731
  H      465.027     -57.181     -45.997
  H      467.506     -60.015     -37.692
  H      466.281     -58.967     -38.418
  P      468.259     -60.512     -48.506
  C      469.621     -58.718     -49.838
  O      468.375     -59.364     -49.620
  O      466.772     -61.061     -48.754
  O      469.255     -61.621     -48.600
  H      466.805     -61.846     -49.333
  H      469.513     -57.986     -50.611
  H      470.352     -59.442     -50.132
  H      469.937     -58.239     -48.935

 6  7  8  9  10  11  12  13  14  15  25  28  32  33  34  35 0
 6-311+G(2d,p)
 ****
 36  37  40 0
 6-311+G(2d,p)
 ****
 1  2  3  4  5  16  17  18  19  20  21  22  23  24 0
 3-21G
 ****
 26  27  29  30  31  38  39 41  42  43  44  45  46  47  48 0
 3-21G
 ****


