%nproc=1
%NoSave
%Mem=1900MB
#P OB98/GEN NMR

erre ene a

0 1
  C      660.031     580.540     209.302
  O      659.926     580.247     210.684
  P      661.146     579.595     211.485
  C      659.713     577.656     212.404
  O      660.816     578.020     211.571
  C      659.412     576.162     212.273
  O      658.887     575.858     210.967
  C      660.627     575.259     212.461
  O      660.955     575.133     213.839
  C      660.136     573.972     211.806
  O      659.329     573.204     212.714
  C      659.280     574.509     210.636
  N      659.967     574.436     209.358
  C      659.338     573.698     208.367
  O      658.254     573.107     208.598
  N      659.946     573.571     207.138
  C      661.093     574.130     206.941
  N      661.662     573.963     205.710
  C      661.819     574.894     207.980
  C      661.203     575.003     209.148
  O      661.492     580.252     212.774
  O      662.345     579.637     210.403
  H      659.797     573.213     213.576
  H      662.691     580.553     210.297
  H      662.783     575.330     207.765
  H      661.663     575.552     209.970
  H      658.345     573.935     210.556
  H      660.968     573.332     211.495
  H      661.469     575.661     211.897
  H      658.638     575.906     213.023
  H      661.153     573.411     205.030
  H      658.841     578.226     212.091
  H      662.566     574.309     205.458
  H      659.944     577.916     213.447
  P      662.327     574.440     214.264
  C      660.937     572.672     215.518
  O      661.998     572.905     214.614
  O      663.127     575.171     215.279
  O      663.136     574.323     212.884
  H      664.066     574.587     213.039
  H      660.606     571.641     215.413
  H      660.090     573.353     215.307
  H      661.296     572.843     216.543
  H      659.113     580.968     208.957
  H      660.229     579.639     208.760
  H      660.830     581.234     209.144

 3  4  5  6  7  8  9  10  11  12  13  23  27  28  29  30  32 0
 6-311+G(2d,p)
 ****
 34  35 0
 6-311+G(2d,p)
 ****
 1  2  14  15  16  17  18  19  20  21  22  24  25  26 0
 3-21G
 ****
 31  33  36  37  38  39  40  41  42  43  44  45  46 0
 3-21G
 ****


