%nproc=1
%NoSave
%Mem=1900MB
#P OB98/GEN NMR

erre ene a

0 1
  C      -66.710      -1.837    -278.050
  O      -65.560      -2.434    -277.484
  H      -66.427      -1.327    -278.975
  H      -67.129      -1.100    -277.358
  H      -67.462      -2.598    -278.281
  P      -65.773      -3.335    -276.173
  C      -66.611      -5.275    -277.703
  O      -65.732      -4.867    -276.664
  C      -66.140      -6.616    -278.279
  O      -64.831      -6.424    -278.883
  C      -66.008      -7.718    -277.220
  O      -66.399      -8.970    -277.793
  C      -64.512      -7.734    -276.924
  O      -64.051      -8.968    -276.394
  C      -63.942      -7.408    -278.311
  N      -62.576      -6.886    -278.245
  C      -61.533      -7.810    -278.273
  O      -61.677      -9.028    -278.435
  N      -60.273      -7.293    -278.121
  C      -59.961      -5.971    -277.915
  O      -58.815      -5.573    -277.761
  C      -61.108      -5.048    -277.879
  C      -62.339      -5.539    -278.039
  O      -67.321      -3.108    -275.820
  O      -64.872      -3.032    -275.025
  H      -67.427      -2.354    -275.211
  H      -64.299      -9.679    -277.025
  H      -59.508      -7.947    -278.146
  H      -60.898      -3.997    -277.710
  H      -63.202      -4.881    -278.006
  H      -63.969      -8.297    -278.955
  H      -64.265      -6.944    -276.207
  H      -66.595      -7.520    -276.324
  H      -66.832      -6.922    -279.080
  H      -66.604      -4.519    -278.497
  H      -67.626      -5.370    -277.305
  P      -67.921      -9.437    -277.572
  C      -69.183      -7.962    -279.327
  O      -68.655      -9.235    -278.989
  O      -68.488      -8.257    -276.654
  O      -68.031     -10.808    -276.982
  H      -68.129      -7.379    -276.891
  H      -69.632      -8.008    -280.297
  H      -68.394      -7.239    -279.333
  H      -69.921      -7.679    -278.605

 6  7  8  9  10  11  12  13  14  15  16  27  31  32  33  34  35 0
 6-311+G(2d,p)
 ****
 36  37 0
 6-311+G(2d,p)
 ****
 1  2  3  4  5  17  18  19  20  21  22  23  24  25 0
 3-21G
 ****
 26  28  29  30  38  39  40  41  42  43  44  45 0
 3-21G
 ****


