%nproc=1
%NoSave
%Mem=1900MB
#P OB98/GEN NMR

erre ene a

0 1
  C       13.830    -309.870    -551.880
  O       12.415    -309.928    -551.827
  H       14.169    -310.442    -552.745
  H       14.257    -310.310    -550.974
  H       14.158    -308.833    -551.986
  P       11.712    -309.124    -550.628
  C       10.812    -307.002    -551.812
  O       11.859    -307.582    -551.049
  C       10.111    -305.901    -551.017
  O        9.781    -306.362    -549.692
  C       10.954    -304.643    -550.818
  O       10.913    -303.821    -551.973
  C       10.238    -304.003    -549.640
  O        9.053    -303.321    -550.104
  C        9.835    -305.225    -548.787
  N       11.226    -304.047    -543.989
  C       10.397    -303.432    -544.857
  N       10.108    -303.781    -546.135
  C       10.776    -304.888    -546.489
  C       11.657    -305.625    -545.708
  C       11.865    -305.173    -544.395
  N       12.710    -305.807    -543.507
  N       12.151    -306.701    -546.412
  C       11.543    -306.646    -547.586
  N       10.728    -305.546    -547.691
  O       12.162    -309.485    -549.256
  O       10.162    -309.412    -550.936
  H        9.320    -302.723    -550.821
  H        9.997    -309.397    -551.897
  H        9.896    -302.546    -544.485
  H       11.644    -307.378    -548.368
  H        8.835    -305.104    -548.356
  H       10.857    -303.264    -549.131
  H       11.979    -304.890    -550.525
  H        9.169    -305.663    -551.528
  H       10.083    -307.770    -552.099
  H       12.934    -305.323    -542.653
  H       13.275    -306.567    -543.852
  H       11.252    -306.593    -552.721
  P       11.828    -302.509    -552.073
  C       13.720    -303.810    -553.234
  O       13.352    -303.015    -552.110
  O       11.553    -301.462    -551.049
  O       11.592    -301.965    -553.559
  H       11.568    -300.989    -553.562
  H       14.750    -304.088    -553.152
  H       13.572    -303.248    -554.132
  H       13.114    -304.691    -553.261

 6  7  8  9  10  11  12  13  14  15  25  28  32  33  34  35 0
 6-311+G(2d,p)
 ****
 36  39  40 0
 6-311+G(2d,p)
 ****
 1  2  3  4  5  16  17  18  19  20  21  22  23  24 0
 3-21G
 ****
 26  27  29  30  31  37  38  41  42  43  44  45  46  47 0
 3-21G
 ****
 48 0
 3-21G
 ****


