%nproc=1
%NoSave
%Mem=1900MB
#P OB98/GEN NMR

erre ene a

0 1
  C       82.121     123.142     170.191
  O       81.124     124.003     169.680
  H       83.115     123.565     170.020
  H       81.966     123.026     171.267
  H       82.047     122.159     169.716
  P       81.243     124.385     168.126
  C       80.219     122.135     167.350
  O       81.345     122.999     167.324
  C       79.938     121.594     165.953
  O       79.639     122.677     165.050
  C       81.102     120.846     165.314
  O       81.218     119.520     165.810
  C       80.676     120.862     163.853
  O       79.709     119.822     163.618
  C       80.010     122.240     163.716
  N       83.058     123.386     159.746
  C       82.344     122.277     160.044
  N       81.567     122.037     161.119
  C       81.548     123.101     161.939
  C       82.224     124.297     161.769
  C       83.015     124.421     160.614
  N       83.751     125.550     160.329
  N       81.955     125.162     162.807
  C       81.132     124.501     163.595
  N       80.861     123.246     163.115
  O       82.721     124.993     168.002
  O       80.215     125.343     167.623
  H       79.034     119.906     164.317
  H       82.711     125.716     167.347
  H       82.403     121.471     159.316
  H       80.705     124.889     164.512
  H       79.085     122.183     163.132
  H       81.506     120.699     163.162
  H       82.040     121.401     165.424
  H       79.050     120.952     166.013
  H       79.343     122.689     167.703
  H       84.134     125.657     159.404
  H       83.706     126.325     160.982
  H       80.421     121.312     168.044
  P       82.609     118.755     165.555
  C       83.881     119.575     167.661
  O       83.733     119.664     166.249
  O       82.864     118.982     163.992
  O       82.611     117.310     165.915
  H       83.431     118.267     163.641
  H       84.662     120.233     167.980
  H       84.129     118.570     167.931
  H       82.963     119.856     168.134

 6  7  8  9  10  11  12  13  14  15  25  28  32  33  34  35 0
 6-311+G(2d,p)
 ****
 36  39  40 0
 6-311+G(2d,p)
 ****
 1  2  3  4  5  16  17  18  19  20  21  22  23  24 0
 3-21G
 ****
 26  27  29  30  31  37  38  41  42  43  44  45  46  47  48 0
 3-21G
 ****


