%nproc=1
%NoSave
%Mem=1900MB
#P OB98/GEN NMR

erre ene a

0 1
  C      274.327      79.994     215.733
  O      274.450      80.472     214.383
  P      275.703      80.141     213.442
  C      276.565      77.804     212.714
  O      275.455      78.697     212.771
  C      276.174      76.496     212.023
  O      275.115      75.833     212.763
  C      275.603      76.645     210.616
  O      276.601      76.966     209.661
  C      274.953      75.279     210.415
  O      275.909      74.305     209.960
  C      274.476      74.926     211.837
  N      273.031      74.962     211.978
  C      272.359      73.740     211.931
  O      272.979      72.697     211.699
  N      270.999      73.722     212.138
  C      270.359      74.841     212.270
  N      269.009      74.765     212.483
  C      271.006      76.165     212.184
  C      272.332      76.152     212.045
  O      277.029      80.267     214.122
  O      275.593      81.157     212.210
  H      276.474      81.314     211.828
  H      276.646      74.319     210.598
  H      270.425      77.075     212.259
  H      272.892      77.083     211.988
  H      274.836      73.927     212.118
  H      274.147      75.314     209.667
  H      274.826      77.423     210.621
  H      277.054      75.841     212.011
  H      268.599      73.842     212.549
  H      276.887      77.584     213.737
  H      268.421      75.576     212.624
  H      277.393      78.295     212.187
  P      276.141      77.818     208.380
  C      275.656      80.333     207.950
  O      276.347      79.368     208.729
  O      274.552      77.640     208.368
  O      276.747      77.369     207.089
  H      274.238      77.550     207.446
  H      275.505      81.227     208.565
  H      274.685      79.960     207.618
  H      276.265      80.605     207.086
  H      273.408      80.346     216.154
  H      275.148      80.356     216.316
  H      274.333      78.924     215.734

 3  4  5  6  7  8  9  10  11  12  13  24  27  28  29  30  32 0
 6-311+G(2d,p)
 ****
 34  35 0
 6-311+G(2d,p)
 ****
 1  2  14  15  16  17  18  19  20  21  22  23  25  26 0
 3-21G
 ****
 31  33  36  37  38  39  40  41  42  43  44  45  46 0
 3-21G
 ****


