%nproc=1
%NoSave
%Mem=1900MB
#P OB98/GEN NMR

erre ene a

0 1
  C       71.210      66.069      -9.399
  O       71.304      64.658      -9.392
  H       70.750      66.383     -10.340
  H       72.199      66.527      -9.321
  H       70.579      66.405      -8.572
  P       72.192      63.965      -8.248
  C       70.660      61.902      -8.462
  O       72.001      62.382      -8.460
  C       70.619      60.375      -8.432
  O       71.176      59.825      -9.644
  C       71.436      59.753      -7.311
  O       70.947      60.006      -6.014
  C       71.576      58.316      -7.787
  O       70.431      57.524      -7.471
  C       71.680      58.509      -9.320
  N       73.039      58.317      -9.812
  C       73.534      57.020      -9.743
  O       72.899      56.073      -9.278
  N       74.812      56.845     -10.198
  C       75.637      57.826     -10.661
  O       76.783      57.607     -11.037
  C       75.073      59.185     -10.674
  C       73.817      59.366     -10.257
  O       71.919      64.427      -6.847
  O       73.697      64.216      -8.727
  H       69.657      57.978      -7.855
  H       74.337      64.054      -7.991
  H       75.184      55.908     -10.171
  H       75.703      59.990     -11.023
  H       73.376      60.360     -10.260
  H       71.028      57.793      -9.838
  H       72.444      57.819      -7.348
  H       72.444      60.187      -7.340
  H       69.570      60.065      -8.379
  H       70.180      62.258      -9.380
  H       70.124      62.313      -7.600
  P       71.702      59.565      -4.681
  C       70.658      61.471      -3.227
  O       70.852      60.075      -3.422
  O       73.183      59.758      -4.654
  O       71.416      57.976      -4.656
  H       72.203      57.549      -4.264
  H       70.072      61.630      -2.346
  H       70.148      61.882      -4.073
  H       71.608      61.951      -3.116

 6  7  8  9  10  11  12  13  14  15  16  26  31  32  33  34  35 0
 6-311+G(2d,p)
 ****
 36  37 0
 6-311+G(2d,p)
 ****
 1  2  3  4  5  17  18  19  20  21  22  23  24  25 0
 3-21G
 ****
 27  28  29  30  38  39  40  41  42  43  44  45 0
 3-21G
 ****


