%nproc=1
%NoSave
%Mem=1900MB
#P OB98/GEN NMR

erre ene a

0 1
  C      174.390     283.841      27.572
  O      174.196     283.625      26.191
  H      175.149     284.619      27.706
  H      174.752     282.923      28.044
  H      173.466     284.168      28.058
  P      172.947     282.747      25.709
  C      173.877     280.559      26.721
  O      172.838     281.529      26.749
  C      173.514     279.371      27.613
  O      173.524     279.822      29.002
  C      172.114     278.790      27.322
  O      172.150     277.375      27.546
  C      171.278     279.465      28.392
  O      170.073     278.781      28.627
  C      172.252     279.463      29.568
  N      171.828     280.386      30.617
  C      171.072     279.853      31.653
  O      170.743     278.669      31.719
  N      170.628     280.742      32.593
  C      170.774     282.098      32.538
  O      170.289     282.857      33.366
  C      171.536     282.611      31.388
  C      172.025     281.745      30.499
  O      172.950     282.339      24.272
  O      171.668     283.629      26.092
  H      169.464     278.909      27.875
  H      170.896     283.354      25.561
  H      170.087     280.369      33.358
  H      171.656     283.685      31.306
  H      172.577     282.090      29.632
  H      172.350     278.457      29.993
  H      171.030     280.488      28.089
  H      171.762     279.000      26.309
  H      174.287     278.601      27.518
  H      174.797     281.030      27.086
  H      174.033     280.224      25.688
  P      171.530     276.335      26.489
  C      169.285     275.891      27.654
  O      169.924     276.416      26.495
  O      172.068     274.946      26.613
  O      171.924     276.944      25.062
  H      172.269     276.230      24.493
  H      168.225     275.994      27.554
  H      169.616     276.428      28.518
  H      169.534     274.856      27.761

 6  7  8  9  10  11  12  13  14  15  16  26  31  32  33  34  35 0
 6-311+G(2d,p)
 ****
 36  37 0
 6-311+G(2d,p)
 ****
 1  2  3  4  5  17  18  19  20  21  22  23  24  25 0
 3-21G
 ****
 27  28  29  30  38  39  40  41  42  43  44  45 0
 3-21G
 ****


