%nproc=1
%NoSave
%Mem=1900MB
#P OB98/GEN NMR

erre ene a

0 1
  C      178.201    -736.087    -102.232
  O      177.528    -734.992    -101.635
  H      179.232    -736.101    -101.877
  H      178.199    -735.981    -103.323
  H      177.716    -737.023    -101.949
  P      175.993    -734.773    -102.055
  C      176.473    -732.225    -102.116
  O      175.661    -733.271    -101.588
  C      176.519    -731.049    -101.141
  O      175.193    -730.547    -100.887
  C      177.123    -731.391     -99.779
  O      178.539    -731.321     -99.838
  C      176.554    -730.262     -98.931
  O      177.336    -729.067     -99.113
  C      175.146    -730.066     -99.517
  N      171.995    -729.924     -95.470
  C      173.072    -729.185     -95.781
  N      173.901    -729.310     -96.844
  C      173.503    -730.327     -97.641
  C      172.413    -731.166     -97.441
  C      171.634    -730.932     -96.300
  N      170.529    -731.698     -95.972
  N      172.324    -732.096     -98.462
  C      173.304    -731.775     -99.286
  N      174.068    -730.739     -98.820
  O      175.039    -735.832    -101.607
  O      176.133    -734.620    -103.644
  H      177.030    -728.428     -98.441
  H      176.916    -734.084    -103.867
  H      173.317    -728.381     -95.098
  H      173.483    -732.259    -100.252
  H      174.868    -729.000     -99.563
  H      176.573    -730.490     -97.862
  H      176.755    -732.344     -99.401
  H      177.083    -730.237    -101.622
  H      176.071    -731.893    -103.084
  H      170.148    -731.583     -95.052
  H      170.346    -732.526     -96.532
  H      177.473    -732.635    -102.284
  P      179.426    -732.662     -99.816
  C      180.633    -732.450     -97.556
  O      180.735    -732.276     -98.962
  O      179.677    -733.264    -101.158
  O      178.638    -733.640     -98.830
  H      178.946    -734.564     -98.961
  H      181.555    -732.165     -97.094
  H      180.427    -733.477     -97.338
  H      179.840    -731.839     -97.178

 6  7  8  9  10  11  12  13  14  15  25  28  32  33  34  35 0
 6-311+G(2d,p)
 ****
 36  39  40 0
 6-311+G(2d,p)
 ****
 1  2  3  4  5  16  17  18  19  20  21  22  23  24 0
 3-21G
 ****
 26  27  29  30  31  37  38  41  42  43  44  45  46  47 0
 3-21G
 ****
 48 0
 3-21G
 ****


