%nproc=1
%NoSave
%Mem=1900MB
#P OB98/GEN NMR

erre ene a

0 1
  C      -99.944     239.205     565.660
  O      -99.462     238.899     566.950
  H      -99.201     238.887     564.926
  H     -100.091     240.284     565.567
  H     -100.882     238.685     565.455
  P     -100.474     238.959     568.189
  C     -101.406     236.571     567.891
  O     -100.662     237.457     568.717
  C     -102.364     235.719     568.735
  O     -103.312     235.065     567.851
  C     -101.618     234.612     569.486
  O     -102.281     234.242     570.691
  C     -101.674     233.447     568.513
  O     -101.516     232.180     569.146
  C     -103.047     233.652     567.875
  N     -103.855     229.530     564.989
  C     -103.647     229.614     566.351
  N     -103.663     228.444     567.034
  N     -103.425     230.736     566.982
  C     -103.371     231.815     566.163
  C     -103.534     231.855     564.797
  C     -103.817     230.608     564.117
  O     -103.985     230.474     562.908
  N     -103.401     233.132     564.312
  C     -103.147     233.863     565.381
  N     -103.143     233.111     566.532
  O     -101.890     239.265     567.502
  O     -100.145     239.971     569.245
  H     -100.620     232.156     569.532
  H     -102.500     239.661     568.149
  H     -104.051     228.642     564.558
  H     -102.975     234.932     565.376
  H     -103.830     233.175     568.479
  H     -100.851     233.557     567.798
  H     -103.630     227.554     566.562
  H     -100.591     234.880     569.717
  H     -103.209     228.452     567.952
  H     -102.948     236.360     569.406
  H     -100.682     235.936     567.376
  H     -101.952     237.131     567.131
  P     -101.619     234.649     572.092
  C     -102.600     237.006     572.801
  O     -102.613     235.600     572.905
  O     -100.423     235.624     571.675
  O     -101.142     233.496     572.910
  H      -99.563     235.225     571.911
  H     -103.354     237.418     573.438
  H     -102.795     237.291     571.788
  H     -101.641     237.377     573.098

 6  7  8  9  10  11  12  13  14  15  26  29  33  34 0
 6-311+G(2d,p)
 ****
 36  38  39  40  41 0
 6-311+G(2d,p)
 ****
 1  2  3  4  5  16  17  18  19  20  21  22  23  24  25 0
 3-21G
 ****
 27  28  30  31  32  35  37  42  43  44  45  46  47 0
 3-21G
 ****
 48  49 0
 3-21G
 ****


