%nproc=1
%NoSave
%Mem=1900MB
#P OB98/GEN NMR

erre ene a

0 1
  C      250.721     -51.385     175.835
  O      249.860     -50.873     174.814
  P      248.421     -51.566     174.671
  C      246.708     -51.780     176.611
  O      247.441     -50.912     175.758
  C      246.097     -50.988     177.767
  O      247.110     -50.503     178.675
  C      245.335     -49.748     177.317
  O      244.081     -50.096     176.755
  C      245.251     -48.972     178.627
  O      244.200     -49.497     179.455
  C      246.616     -49.277     179.266
  N      247.301     -44.212     179.019
  C      246.199     -44.965     179.232
  N      246.098     -46.310     179.279
  C      247.299     -46.883     179.094
  C      248.509     -46.246     178.872
  C      248.485     -44.842     178.833
  N      249.604     -44.076     178.603
  N      249.525     -47.169     178.725
  C      248.933     -48.342     178.832
  N      247.591     -48.220     179.068
  O      248.668     -53.047     175.223
  O      247.898     -51.578     173.272
  H      243.367     -49.424     178.948
  H      248.650     -53.685     174.486
  H      245.274     -44.414     179.378
  H      249.432     -49.299     178.748
  H      246.538     -49.444     180.347
  H      245.053     -47.907     178.482
  H      245.928     -49.186     176.584
  H      245.425     -51.657     178.321
  H      247.359     -52.564     177.003
  H      249.486     -43.080     178.512
  H      250.474     -44.537     178.376
  H      245.932     -52.280     176.021
  P      243.906     -49.949     175.169
  C      244.241     -51.573     173.205
  O      244.374     -51.380     174.601
  O      245.138     -49.006     174.794
  O      242.564     -49.483     174.723
  H      245.960     -49.292     175.233
  H      244.624     -52.565     172.952
  H      244.818     -50.819     172.663
  H      243.188     -51.515     172.918
  H      251.644     -50.843     175.828
  H      250.915     -52.421     175.652
  H      250.249     -51.274     176.789

 3  4  5  6  7  8  9  10  11  12  22  25  29  30  31  32 0
 6-311+G(2d,p)
 ****
 33  36  37 0
 6-311+G(2d,p)
 ****
 1  2  13  14  15  16  17  18  19  20  21  23  24  26 0
 3-21G
 ****
 27  28  34  35  38  39  40  41  42  43  44  45  46  47  48 0
 3-21G
 ****


