%nproc=1
%NoSave
%Mem=1900MB
#P OB98/GEN NMR

erre ene a

0 1
  C     1998.945     -75.995     374.112
  O     1998.856     -75.950     372.700
  P     1997.785     -76.928     372.004
  C     1997.567     -79.544     372.035
  O     1998.399     -78.391     372.083
  C     1998.313     -80.716     371.431
  O     1999.485     -81.058     372.244
  C     1997.513     -82.012     371.328
  O     1996.578     -81.984     370.288
  C     1998.613     -83.063     371.209
  O     1999.079     -83.075     369.831
  C     1999.721     -82.452     372.093
  N     1999.765     -83.112     373.425
  C     1999.927     -84.489     373.406
  O     2000.017     -85.168     372.396
  N     2000.003     -85.097     374.636
  C     1999.810     -84.461     375.864
  O     1999.832     -85.067     376.922
  C     1999.609     -83.017     375.800
  C     1999.608     -82.402     374.602
  O     1997.946     -76.489     370.463
  O     1996.392     -76.752     372.519
  H     1998.871     -76.148     370.274
  H     1999.553     -83.920     369.733
  H     2000.139     -86.084     374.667
  H     1999.470     -82.491     376.716
  H     1999.442     -81.339     374.527
  H     2000.697     -82.555     371.617
  H     1998.272     -84.061     371.483
  H     1996.971     -82.166     372.298
  H     1998.653     -80.416     370.421
  H     1996.661     -79.294     371.469
  H     1997.253     -79.777     373.080
  P     1995.152     -82.689     370.547
  C     1994.322     -85.192     370.495
  O     1995.375     -84.254     370.304
  O     1994.300     -82.220     369.284
  O     1994.547     -82.353     371.865
  H     1994.826     -82.252     368.437
  H     1994.560     -86.092     369.968
  H     1993.358     -84.781     370.119
  H     1994.199     -85.411     371.573
  H     1999.689     -75.302     374.445
  H     1999.215     -76.983     374.421
  H     1997.999     -75.734     374.538

 3  4  5  6  7  8  9  10  11  12  13  24  28  29  30  31  32 0
 6-311+G(2d,p)
 ****
 33  34 0
 6-311+G(2d,p)
 ****
 1  2  14  15  16  17  18  19  20  21  22  23  25  26  27 0
 3-21G
 ****
 35  36  37  38  39  40  41  42  43  44  45 0
 3-21G
 ****


