%nproc=1
%NoSave
%Mem=1900MB
#P OB98/GEN NMR

erre ene a

0 1
  C      715.457    -819.022      70.051
  O      715.606    -820.441      69.872
  P      714.804    -821.428      70.848
  C      714.069    -823.904      70.555
  O      715.112    -822.939      70.437
  C      714.381    -825.144      69.697
  O      714.131    -824.905      68.297
  C      715.832    -825.595      69.779
  O      716.056    -826.384      70.929
  C      715.957    -826.441      68.531
  O      715.391    -827.758      68.763
  C      715.087    -825.674      67.532
  N      717.500    -825.181      63.029
  C      716.866    -826.231      63.602
  N      716.270    -826.277      64.825
  C      716.335    -825.102      65.430
  C      716.950    -823.946      64.977
  C      717.556    -824.008      63.711
  N      718.198    -822.936      63.122
  N      716.832    -822.917      65.896
  C      716.159    -823.449      66.901
  N      715.852    -824.756      66.666
  O      713.274    -821.216      70.407
  O      714.976    -821.113      72.299
  H      715.964    -828.183      69.445
  H      712.690    -821.291      71.174
  H      716.848    -827.152      63.034
  H      715.874    -822.932      67.792
  H      714.510    -826.322      66.855
  H      716.990    -826.609      68.209
  H      716.521    -824.735      69.727
  H      713.721    -825.963      70.027
  H      713.116    -823.476      70.235
  H      718.578    -823.042      62.199
  H      718.220    -822.057      63.619
  H      713.963    -824.184      71.612
  P      716.963    -825.733      72.109
  C      717.202    -826.308      74.631
  O      716.931    -826.776      73.315
  O      716.071    -824.509      72.600
  O      718.332    -825.306      71.655
  H      716.668    -823.775      72.919
  H      716.837    -827.047      75.345
  H      716.696    -825.334      74.799
  H      718.273    -826.186      74.752
  H      716.052    -818.507      69.327
  H      715.778    -818.751      71.035
  H      714.429    -818.753      69.925

 3  4  5  6  7  8  9  10  11  12  22  25  29  30  31  32 0
 6-311+G(2d,p)
 ****
 33  36  37 0
 6-311+G(2d,p)
 ****
 1  2  13  14  15  16  17  18  19  20  21  23  24  26 0
 3-21G
 ****
 27  28  34  35  38  39  40  41  42  43  44  45  46  47  48 0
 3-21G
 ****


