%nproc=1
%NoSave
%Mem=1900MB
#P OB98/GEN NMR

erre ene a

0 1
  C      633.733     552.413     -32.584
  O      634.691     551.394     -32.413
  H      633.832     552.838     -33.586
  H      633.889     553.210     -31.848
  H      632.714     552.008     -32.483
  P      634.643     550.494     -31.092
  C      634.475     551.199     -28.611
  O      635.098     551.438     -29.865
  C      634.740     552.372     -27.675
  O      634.294     553.614     -28.281
  C      634.006     552.275     -26.339
  O      634.610     551.330     -25.474
  C      634.067     553.721     -25.874
  O      635.328     554.002     -25.254
  C      633.929     554.504     -27.199
  N      632.567     555.024     -27.378
  C      632.125     555.924     -26.422
  O      632.807     556.286     -25.464
  N      630.837     556.353     -26.557
  C      629.922     555.868     -27.457
  O      628.721     556.100     -27.390
  C      630.465     554.974     -28.486
  C      631.744     554.586     -28.405
  O      635.344     549.180     -31.176
  O      633.074     550.303     -30.828
  H      632.804     549.412     -31.129
  H      635.333     554.969     -25.077
  H      630.487     556.975     -25.834
  H      629.799     554.624     -29.274
  H      632.155     553.895     -29.132
  H      634.632     555.342     -27.231
  H      633.278     553.943     -25.148
  H      632.952     552.012     -26.522
  H      635.826     552.448     -27.512
  H      634.890     550.282     -28.184
  H      633.398     551.066     -28.768
  P      633.845     550.857     -24.145
  C      632.521     552.048     -22.293
  O      633.590     552.150     -23.226
  O      634.467     549.702     -23.431
  O      632.377     550.485     -24.650
  H      632.135     549.589     -24.301
  H      632.443     552.960     -21.739
  H      632.710     551.237     -21.621
  H      631.606     551.870     -22.818

 6  7  8  9  10  11  12  13  14  15  16  27  31  32  33  34  35 0
 6-311+G(2d,p)
 ****
 36  37 0
 6-311+G(2d,p)
 ****
 1  2  3  4  5  17  18  19  20  21  22  23  24  25 0
 3-21G
 ****
 26  28  29  30  38  39  40  41  42  43  44  45 0
 3-21G
 ****


