%nproc=1
%NoSave
%Mem=1900MB
#P OB98/GEN NMR

erre ene a

0 1
  C       51.687      82.182    -114.400
  O       51.247      83.277    -113.623
  P       51.249      84.764    -114.213
  C       53.639      85.070    -113.334
  O       52.773      85.203    -114.453
  C       54.848      85.996    -113.451
  O       55.665      85.582    -114.577
  C       54.488      87.476    -113.649
  O       55.438      88.248    -112.907
  C       54.683      87.678    -115.140
  O       54.897      89.043    -115.480
  C       55.875      86.747    -115.401
  N       56.008      86.391    -116.804
  C       56.873      87.168    -117.576
  O       57.381      88.184    -117.101
  N       57.125      86.781    -118.869
  C       56.428      85.820    -119.396
  N       56.756      85.422    -120.655
  C       55.328      85.142    -118.680
  C       55.201      85.440    -117.391
  O       50.436      85.753    -113.441
  O       50.684      84.599    -115.702
  H       49.933      85.213    -115.828
  H       55.070      89.105    -116.443
  H       54.694      84.437    -119.200
  H       54.441      84.974    -116.773
  H       56.811      87.215    -115.065
  H       53.798      87.327    -115.681
  H       53.477      87.716    -113.307
  H       55.456      85.878    -112.547
  H       57.542      85.882    -121.098
  H       53.985      84.035    -113.292
  H       56.501      84.504    -121.017
  H       53.084      85.272    -112.409
  P       54.991      89.695    -112.369
  C       56.399      91.025    -114.098
  O       55.116      90.731    -113.586
  O       56.248      90.100    -111.454
  O       53.737      89.748    -111.558
  H       55.955      90.738    -110.776
  H       56.301      91.793    -114.868
  H       56.840      90.131    -114.552
  H       57.054      91.400    -113.309
  H       51.607      81.282    -113.826
  H       52.707      82.334    -114.685
  H       51.080      82.101    -115.278

 3  4  5  6  7  8  9  10  11  12  13  24  27  28  29  30  32 0
 6-311+G(2d,p)
 ****
 34  35 0
 6-311+G(2d,p)
 ****
 1  2  14  15  16  17  18  19  20  21  22  23  25  26 0
 3-21G
 ****
 31  33  36  37  38  39  40  41  42  43  44  45  46 0
 3-21G
 ****


