%nproc=1
%NoSave
%Mem=1900MB
#P OB98/GEN NMR

erre ene a

0 1
  C      709.245    -135.445     792.122
  O      708.928    -136.618     791.408
  H      709.329    -135.691     793.185
  H      708.456    -134.693     791.995
  H      710.203    -135.031     791.781
  P      708.777    -136.468     789.810
  C      707.154    -135.151     788.277
  O      707.377    -135.736     789.554
  C      705.661    -134.905     788.070
  O      705.206    -133.857     788.960
  C      705.290    -134.447     786.680
  O      705.262    -135.512     785.743
  C      703.921    -133.820     786.918
  O      702.885    -134.808     786.924
  C      704.087    -133.194     788.320
  N      702.089    -128.724     786.856
  C      701.571    -129.988     786.852
  N      702.175    -131.126     787.279
  C      703.410    -130.870     787.749
  C      704.058    -129.644     787.800
  C      703.333    -128.533     787.325
  N      703.858    -127.251     787.292
  N      705.326    -129.774     788.312
  C      705.461    -131.074     788.575
  N      704.323    -131.763     788.259
  O      708.516    -137.976     789.336
  O      709.959    -135.865     789.122
  H      702.891    -135.215     786.032
  H      709.355    -138.357     788.985
  H      700.562    -130.092     786.476
  H      706.345    -131.543     788.977
  H      703.205    -133.362     788.950
  H      703.689    -133.089     786.142
  H      705.979    -133.664     786.339
  H      705.111    -135.824     788.337
  H      707.521    -135.820     787.494
  H      707.700    -134.201     788.223
  H      703.310    -126.519     786.875
  H      704.824    -127.117     787.547
  P      705.127    -135.158     784.186
  C      703.322    -134.015     782.686
  O      703.662    -134.577     783.950
  O      705.107    -136.571     783.461
  O      706.213    -134.269     783.670
  H      705.585    -136.517     782.592
  H      702.307    -133.678     782.707
  H      703.435    -134.757     781.924
  H      703.968    -133.188     782.478

 6  7  8  9  10  11  12  13  14  15  25  28  32  33  34  35 0
 6-311+G(2d,p)
 ****
 36  37  40 0
 6-311+G(2d,p)
 ****
 1  2  3  4  5  16  17  18  19  20  21  22  23  24 0
 3-21G
 ****
 26  27  29  30  31  38  39 41  42  43  44  45  46  47  48 0
 3-21G
 ****


