%nproc=1
%NoSave
%Mem=1900MB
#P OB98/GEN NMR

erre ene a

0 1
  C        9.739    -150.654    -112.557
  O        9.774    -149.659    -111.561
  P        9.980    -149.962    -110.008
  C        8.600    -151.118    -108.106
  O        8.617    -150.570    -109.418
  C        7.582    -152.262    -107.998
  O        7.960    -153.311    -108.929
  C        7.583    -152.894    -106.591
  O        6.287    -153.196    -106.087
  C        8.567    -154.051    -106.740
  O        8.421    -155.053    -105.741
  C        8.308    -154.494    -108.176
  N       10.120    -158.847    -110.094
  C        8.824    -158.525    -109.738
  N        7.937    -159.549    -109.727
  N        8.443    -157.319    -109.397
  C        9.461    -156.422    -109.346
  C       10.783    -156.627    -109.678
  C       11.181    -157.954    -110.085
  O       12.343    -158.311    -110.296
  N       11.546    -155.507    -109.436
  C       10.691    -154.637    -108.935
  N        9.419    -155.160    -108.829
  O       10.690    -148.918    -109.206
  O       10.934    -151.271    -110.057
  H        9.125    -155.717    -105.887
  H       11.532    -151.219    -109.282
  H       10.368    -159.816    -110.269
  H       10.941    -153.635    -108.603
  H        7.465    -155.186    -108.236
  H        9.580    -153.638    -106.632
  H        8.235    -160.509    -109.841
  H        7.980    -152.185    -105.853
  H        7.060    -159.393    -109.238
  H        6.593    -151.892    -108.290
  H        8.318    -150.298    -107.431
  H        9.598    -151.461    -107.819
  P        5.680    -152.900    -104.639
  C        6.701    -153.160    -102.296
  O        6.482    -153.768    -103.558
  O        4.234    -153.584    -104.644
  O        5.562    -151.450    -104.296
  H        3.594    -153.013    -104.175
  H        7.477    -153.721    -101.761
  H        5.776    -153.186    -101.709
  H        7.032    -152.122    -102.413
  H        9.590    -150.197    -113.513
  H        8.935    -151.331    -112.356
  H       10.665    -151.190    -112.558

 3  4  5  6  7  8  9  10  11  12  23  26  30  31 0
 6-311+G(2d,p)
 ****
 33  35  36  37  38 0
 6-311+G(2d,p)
 ****
 1  2  13  14  15  16  17  18  19  20  21  22  24  25 0
 3-21G
 ****
 27  28  29  32  34  39  40  41  42  43  44  45  46  47  48  49 0
 3-21G
 ****


