%nproc=1
%NoSave
%Mem=1900MB
#P OB98/GEN NMR

erre ene a

0 1
  C       36.188    -111.838     -95.532
  O       36.463    -113.098     -94.940
  P       37.880    -113.779     -95.256
  C       37.237    -114.426     -97.676
  O       37.612    -114.888     -96.385
  C       37.134    -115.585     -98.659
  O       36.626    -115.083     -99.926
  C       38.469    -116.291     -98.946
  O       38.262    -117.710     -98.953
  C       38.797    -115.865    -100.366
  O       39.635    -116.808    -101.026
  C       37.391    -115.745    -100.952
  N       37.216    -116.218    -105.977
  C       37.032    -117.170    -104.994
  N       36.828    -118.438    -105.415
  N       37.048    -116.907    -103.714
  C       37.231    -115.592    -103.439
  C       37.416    -114.555    -104.324
  C       37.455    -114.872    -105.735
  O       37.703    -114.089    -106.650
  N       37.550    -113.358    -103.668
  C       37.452    -113.669    -102.390
  N       37.306    -115.020    -102.199
  O       38.165    -114.639     -93.936
  O       38.995    -112.830     -95.532
  H       39.125    -117.636    -101.109
  H       39.025    -114.380     -93.553
  H       37.210    -116.479    -106.946
  H       37.512    -112.960    -101.574
  H       36.957    -116.741    -101.114
  H       39.310    -114.898    -100.343
  H       36.767    -118.704    -106.384
  H       39.270    -116.039     -98.243
  H       36.668    -119.147    -104.709
  H       36.394    -116.300     -98.280
  H       37.987    -113.715     -98.035
  H       36.273    -113.911     -97.600
  P       39.322    -118.580     -98.118
  C       40.774    -119.245    -100.175
  O       39.901    -119.663     -99.144
  O       38.401    -119.440     -97.134
  O       40.335    -117.763     -97.387
  H       38.903    -119.705     -96.341
  H       41.090    -118.205    -100.052
  H       40.263    -119.346    -101.136
  H       41.659    -119.885    -100.174
  H       35.214    -111.509     -95.234
  H       36.223    -111.929     -96.598
  H       36.919    -111.126     -95.210

 3  4  5  6  7  8  9  10  11  12  23  26  30  31  33  0
 6-311+G(2d,p)
 ****
 35  36  37  38 0
 6-311+G(2d,p)
 ****
 1  2  13  14  15  16  17  18  19  20  21  22  24  25  27  28  29 0
 3-21G
 ****
 32  34  39  40  41  42  43  44  45  46  47  48  49 0
 3-21G
 ****


