%nproc=1
%NoSave
%Mem=1900MB
#P OB98/GEN NMR

erre ene a

0 1
  C       67.492     100.733    -128.061
  O       67.715     100.444    -129.423
  P       68.722      99.284    -129.873
  C       66.791      97.715    -129.196
  O       68.199      97.925    -129.185
  C       66.465      96.332    -129.781
  O       67.140      95.315    -128.977
  C       64.953      96.019    -129.768
  O       64.423      95.613    -131.033
  C       64.828      95.000    -128.648
  O       63.662      94.203    -128.719
  C       66.174      94.270    -128.745
  N       66.475      93.487    -127.546
  C       66.328      92.107    -127.634
  O       65.974      91.510    -128.646
  N       66.541      91.407    -126.478
  C       66.770      91.943    -125.246
  O       66.854      91.258    -124.234
  C       66.875      93.412    -125.208
  C       66.752      94.107    -126.342
  O       70.167      99.568    -129.648
  O       68.337      99.045    -131.411
  H       63.672      93.731    -129.573
  H       67.413      98.778    -131.565
  H       66.437      90.404    -126.527
  H       67.045      93.867    -124.240
  H       66.824      95.192    -126.344
  H       66.202      93.600    -129.607
  H       64.782      95.552    -127.699
  H       64.369      96.913    -129.513
  H       66.867      96.298    -130.799
  H       66.324      98.485    -129.816
  H       66.391      97.821    -128.181
  P       62.894      95.757    -131.479
  C       63.385      97.927    -132.828
  O       62.618      97.297    -131.824
  O       61.899      95.127    -130.559
  O       62.856      95.050    -132.917
  H       61.968      94.677    -133.074
  H       63.453      98.996    -132.601
  H       62.885      97.805    -133.795
  H       64.396      97.513    -132.882
  H       66.790     101.536    -127.977
  H       68.415     101.017    -127.601
  H       67.102      99.865    -127.572

 3  4  5  6  7  8  9  10  11  12  13  23  28  29  30  31  32 0
 6-311+G(2d,p)
 ****
 33  34 0
 6-311+G(2d,p)
 ****
 1  2  14  15  16  17  18  19  20  21  22  24  25  26  27 0
 3-21G
 ****
 35  36  37  38  39  40  41  42  43  44  45 0
 3-21G
 ****


