%nproc=1
%NoSave
%Mem=1900MB
#P OB98/GEN NMR

erre ene a

0 1
  C      188.707      96.829      -0.233
  O      188.853      97.812       0.772
  H      187.648      96.659      -0.443
  H      189.193      97.182      -1.146
  H      189.178      95.893       0.081
  P      188.173      97.501       2.192
  C      185.791      97.879       3.170
  O      186.662      98.029       2.058
  C      184.870      99.091       3.255
  O      185.642     100.285       3.515
  C      184.100      99.368       1.969
  O      182.939      98.563       1.845
  C      183.737     100.831       2.166
  O      182.643     100.941       3.093
  C      185.026     101.385       2.792
  N      186.109     105.272      -0.360
  C      185.113     105.086       0.534
  N      184.907     104.032       1.350
  C      185.869     103.111       1.188
  C      186.949     103.164       0.322
  C      187.052     104.308      -0.485
  N      188.046     104.487      -1.420
  N      187.711     102.016       0.424
  C      187.110     101.294       1.348
  N      185.974     101.899       1.817
  O      188.841      98.571       3.177
  O      188.296      96.097       2.682
  H      182.986     100.684       3.970
  H      188.669      98.330       4.107
  H      184.384     105.888       0.599
  H      187.448     100.329       1.703
  H      184.832     102.191       3.511
  H      183.424     101.316       1.239
  H      184.743      99.276       1.087
  H      184.186      98.945       4.100
  H      186.389      97.807       4.084
  H      187.950     105.267      -2.051
  H      188.664     103.717      -1.625
  H      185.203      96.965       3.051
  P      182.521      98.088       0.369
  C      180.925      99.019      -1.457
  O      181.652      99.280      -0.262
  O      181.436      96.949       0.654
  O      183.655      97.595      -0.470
  H      181.464      96.261      -0.038
  H      180.398      99.902      -1.754
  H      180.226      98.228      -1.283
  H      181.604      98.731      -2.232

 6  7  8  9  10  11  12  13  14  15  25  28  32  33  34  35 0
 6-311+G(2d,p)
 ****
 36  39  40 0
 6-311+G(2d,p)
 ****
 1  2  3  4  5  16  17  18  19  20  21  22  23  24 0
 3-21G
 ****
 26  27  29  30  31  37  38  41  42  43  44  45  46  47 0
 3-21G
 ****
 48 0
 3-21G
 ****


