%nproc=1
%NoSave
%Mem=1900MB
#P OB98/GEN NMR

erre ene a

0 1
  C     -100.704    -814.662     205.542
  O      -99.433    -814.479     206.148
  P      -98.330    -813.550     205.474
  C      -97.769    -811.923     207.459
  O      -98.359    -812.127     206.185
  C      -98.052    -810.483     207.919
  O      -99.462    -810.236     207.947
  C      -97.488    -810.204     209.304
  O      -96.193    -809.640     209.230
  C      -98.525    -809.295     209.908
  O      -98.316    -807.940     209.469
  C      -99.838    -809.851     209.317
  N     -100.452    -811.024     209.962
  C     -101.687    -810.873     210.598
  O     -102.319    -809.817     210.638
  N     -102.173    -812.004     211.220
  C     -101.584    -813.234     211.216
  O     -101.882    -814.161     211.971
  C     -100.444    -813.377     210.305
  C      -99.919    -812.289     209.745
  O      -98.952    -813.251     204.021
  O      -96.959    -814.142     205.386
  H      -98.387    -807.959     208.480
  H      -98.557    -813.830     203.358
  H     -102.992    -811.874     211.796
  H     -100.028    -814.376     210.164
  H      -99.056    -812.375     209.095
  H     -100.599    -809.077     209.234
  H      -98.453    -809.278     211.002
  H      -97.455    -811.148     209.890
  H      -97.602    -809.796     207.186
  H      -96.686    -812.104     207.412
  H      -98.180    -812.636     208.190
  P      -94.941    -810.409     209.876
  C      -93.547    -810.529     207.724
  O      -94.309    -811.263     208.671
  O      -95.235    -811.165     211.130
  O      -93.887    -809.232     210.125
  H      -93.929    -808.942     211.072
  H      -93.022    -811.237     207.080
  H      -92.816    -809.903     208.230
  H      -94.205    -809.919     207.114
  H     -101.296    -815.317     206.146
  H     -100.577    -815.091     204.570
  H     -101.196    -813.716     205.453

 3  4  5  6  7  8  9  10  11  12  13  23  28  29  30  31  32 0
 6-311+G(2d,p)
 ****
 33  34 0
 6-311+G(2d,p)
 ****
 1  2  14  15  16  17  18  19  20  21  22  24  25  26  27 0
 3-21G
 ****
 35  36  37  38  39  40  41  42  43  44  45 0
 3-21G
 ****


