%nproc=1
%NoSave
%Mem=1900MB
#P OB98/GEN NMR

erre ene a

0 1
  C     1236.363    -327.583    -703.915
  O     1237.058    -327.918    -702.715
  H     1235.649    -328.376    -704.131
  H     1237.077    -327.508    -704.742
  H     1235.823    -326.647    -703.791
  P     1238.099    -326.820    -702.164
  C     1236.339    -325.892    -700.495
  O     1237.221    -325.611    -701.576
  C     1235.168    -324.896    -700.459
  O     1234.442    -324.993    -701.740
  C     1234.152    -325.149    -699.329
  O     1233.661    -323.880    -698.888
  C     1233.020    -325.884    -700.053
  O     1231.782    -325.780    -699.344
  C     1233.055    -325.159    -701.407
  N     1228.478    -326.110    -703.267
  C     1228.858    -325.279    -702.233
  N     1227.890    -324.585    -701.596
  N     1230.108    -325.129    -701.850
  C     1230.981    -325.858    -702.597
  C     1230.716    -326.714    -703.633
  C     1229.334    -326.895    -704.025
  O     1228.922    -327.619    -704.925
  N     1231.886    -327.283    -704.108
  C     1232.824    -326.770    -703.364
  N     1232.332    -325.879    -702.429
  O     1238.723    -326.213    -703.511
  O     1239.150    -327.353    -701.247
  H     1231.616    -324.840    -699.197
  H     1239.559    -326.686    -703.742
  H     1227.495    -326.180    -703.485
  H     1233.905    -326.971    -703.463
  H     1232.593    -324.161    -701.361
  H     1233.261    -326.952    -700.170
  H     1226.923    -324.621    -701.864
  H     1234.560    -325.714    -698.477
  H     1228.179    -323.942    -700.865
  H     1235.592    -323.897    -700.413
  H     1236.903    -325.803    -699.552
  H     1235.964    -326.927    -700.599
  P     1234.222    -323.293    -697.492
  C     1235.750    -321.440    -698.502
  O     1235.663    -322.650    -697.751
  O     1234.553    -324.631    -696.665
  O     1233.241    -322.421    -696.753
  H     1234.474    -324.460    -695.714
  H     1236.775    -321.144    -698.585
  H     1235.196    -320.671    -698.005
  H     1235.344    -321.597    -699.480

 6  7  8  9  10  11  12  13  14  15  26  29  33  34 0
 6-311+G(2d,p)
 ****
 36  38  39  40  41 0
 6-311+G(2d,p)
 ****
 1  2  3  4  5  16  17  18  19  20  21  22  23  24  25 0
 3-21G
 ****
 27  28  30  31  32  35  37  42  43  44  45  46  47 0
 3-21G
 ****
 48  49 0
 3-21G
 ****


