%nproc=1
%NoSave
%Mem=1900MB
#P OB98/GEN NMR

erre ene a

0 1
  C      343.876      20.008     357.945
  O      343.019      20.940     357.318
  H      344.595      19.617     357.220
  H      344.422      20.513     358.745
  H      343.298      19.186     358.372
  P      342.139      20.390     356.091
  C      343.274      22.170     354.600
  O      342.052      21.579     355.013
  C      343.012      23.560     354.021
  O      342.032      23.429     352.957
  C      342.476      24.577     355.041
  O      343.238      25.793     354.991
  C      341.066      24.869     354.572
  O      340.668      26.217     354.807
  C      341.135      24.540     353.086
  N      337.034      26.477     350.746
  C      338.301      26.923     350.833
  N      339.370      26.315     351.386
  C      339.037      25.102     351.862
  C      337.787      24.504     351.828
  C      336.747      25.254     351.256
  N      335.436      24.823     351.215
  N      337.823      23.254     352.424
  C      339.061      23.119     352.847
  N      339.829      24.217     352.549
  O      340.656      20.324     356.706
  O      342.571      19.062     355.566
  H      339.841      26.364     354.308
  H      340.346      19.401     356.685
  H      338.487      27.901     350.406
  H      339.449      22.278     353.415
  H      341.548      25.375     352.501
  H      340.368      24.200     355.098
  H      342.482      24.188     356.066
  H      343.936      23.930     353.560
  H      343.743      21.544     353.831
  H      334.739      25.473     350.897
  H      335.198      23.962     351.693
  H      343.949      22.235     355.456
  P      344.508      25.880     355.974
  C      343.958      27.802     357.631
  O      344.662      27.407     356.459
  O      345.750      25.662     354.977
  O      344.498      24.858     357.060
  H      346.288      24.903     355.284
  H      344.152      28.835     357.833
  H      344.284      27.209     358.460
  H      342.908      27.659     357.482

 6  7  8  9  10  11  12  13  14  15  25  28  32  33  34  35 0
 6-311+G(2d,p)
 ****
 36  39  40 0
 6-311+G(2d,p)
 ****
 1  2  3  4  5  16  17  18  19  20  21  22  23  24 0
 3-21G
 ****
 26  27  29  30  31  37  38  41  42  43  44  45  46  47  48 0
 3-21G
 ****


