%nproc=1
%NoSave
%Mem=1900MB
#P OB98/GEN NMR

erre ene a

0 1
  C     -206.871    -672.069    -320.324
  O     -207.768    -673.162    -320.355
  H     -207.344    -671.237    -319.801
  H     -206.619    -671.747    -321.337
  H     -205.953    -672.344    -319.785
  P     -207.347    -674.473    -321.170
  C     -205.637    -676.126    -320.152
  O     -206.948    -675.585    -320.080
  C     -205.594    -677.541    -319.564
  O     -206.113    -677.500    -318.202
  C     -206.449    -678.561    -320.345
  O     -205.837    -679.846    -320.185
  C     -207.761    -678.499    -319.574
  O     -208.598    -679.585    -319.900
  C     -207.234    -678.411    -318.140
  N     -208.254    -677.958    -317.206
  C     -208.696    -678.895    -316.270
  O     -208.232    -680.039    -316.273
  N     -209.660    -678.530    -315.364
  C     -210.193    -677.343    -315.434
  N     -211.158    -677.052    -314.529
  C     -209.799    -676.342    -316.448
  C     -208.824    -676.708    -317.285
  O     -206.341    -674.267    -322.257
  O     -208.735    -675.026    -321.752
  H     -209.481    -679.489    -319.472
  H     -208.793    -674.825    -322.707
  H     -210.279    -675.378    -316.480
  H     -208.468    -676.035    -318.061
  H     -206.853    -679.385    -317.802
  H     -208.317    -677.594    -319.836
  H     -206.551    -678.311    -321.406
  H     -204.555    -677.875    -319.504
  H     -211.406    -677.776    -313.855
  H     -204.975    -675.465    -319.584
  H     -211.651    -676.175    -314.498
  H     -205.297    -676.150    -321.196
  P     -205.456    -680.778    -321.434
  C     -204.292    -680.015    -323.617
  O     -204.189    -680.150    -322.204
  O     -206.603    -681.107    -322.335
  O     -204.855    -682.122    -320.785
  H     -205.061    -682.873    -321.371
  H     -203.389    -679.588    -324.001
  H     -205.118    -679.377    -323.855
  H     -204.447    -680.978    -324.057

 6  7  8  9  10  11  12  13  14  15  16  26  30  31  32  33  35 0
 6-311+G(2d,p)
 ****
 37  38 0
 6-311+G(2d,p)
 ****
 1  2  3  4  5  17  18  19  20  21  22  23  24  25 0
 3-21G
 ****
 27  28  29  34  36  39  40  41  42  43  44  45  46 0
 3-21G
 ****


