%nproc=1
%NoSave
%Mem=1900MB
#P OB98/GEN NMR

erre ene a

0 1
  C      558.274     219.024     841.524
  O      557.817     220.011     840.622
  P      558.757     221.296     840.386
  C      557.164     222.717     841.890
  O      558.503     222.287     841.614
  C      557.186     224.083     842.577
  O      557.713     223.956     843.910
  C      558.047     225.125     841.884
  O      557.418     225.627     840.721
  C      558.223     226.142     843.015
  O      557.034     226.948     843.123
  C      558.348     225.224     844.252
  N      562.737     227.408     845.747
  C      561.537     227.923     845.407
  N      560.423     227.291     845.005
  C      560.638     225.953     844.965
  C      561.803     225.278     845.252
  C      562.893     226.055     845.661
  N      564.116     225.523     845.995
  N      561.645     223.919     845.071
  C      560.387     223.785     844.694
  N      559.726     224.985     844.627
  O      558.061     222.046     839.157
  O      560.187     220.973     840.110
  H      557.164     227.567     843.874
  H      558.729     222.478     838.592
  H      561.460     229.013     845.483
  H      559.912     222.839     844.461
  H      557.834     225.623     845.133
  H      559.065     226.807     842.872
  H      559.024     224.700     841.621
  H      556.147     224.431     842.649
  H      556.683     221.989     842.555
  H      564.883     226.159     846.135
  H      564.276     224.539     845.794
  H      556.609     222.752     840.948
  P      558.341     226.337     839.619
  C      557.014     228.527     839.670
  O      558.249     227.904     839.975
  O      557.435     226.216     838.307
  O      559.732     225.776     839.519
  H      556.524     226.505     838.461
  H      557.069     229.563     840.012
  H      556.187     228.023     840.189
  H      556.838     228.515     838.594
  H      557.555     218.234     841.583
  H      558.405     219.459     842.493
  H      559.208     218.631     841.180

 3  4  5  6  7  8  9  10  11  12  22  25  29  30  31  32 0
 6-311+G(2d,p)
 ****
 33  36  37 0
 6-311+G(2d,p)
 ****
 1  2  13  14  15  16  17  18  19  20  21  23  24  26 0
 3-21G
 ****
 27  28  34  35  38  39  40  41  42  43  44  45  46  47  48 0
 3-21G
 ****


