%nproc=1
%NoSave
%Mem=1900MB
#P OB98/GEN NMR

erre ene a

0 1
  C       13.379     -69.888     197.938
  O       12.798     -70.950     198.665
  P       13.694     -71.936     199.551
  C       13.556     -73.834     197.837
  O       13.296     -73.442     199.177
  C       13.479     -75.352     197.676
  O       14.436     -75.981     198.567
  C       12.097     -75.945     197.979
  O       11.874     -77.006     197.043
  C       12.259     -76.499     199.381
  O       11.307     -77.508     199.681
  C       13.718     -76.968     199.334
  N       14.293     -77.132     200.660
  C       14.088     -78.362     201.289
  O       13.338     -79.198     200.783
  N       14.725     -78.600     202.482
  C       15.350     -77.632     203.078
  N       16.025     -77.930     204.222
  C       15.372     -76.252     202.557
  C       14.869     -76.083     201.338
  O       13.700     -71.642     201.015
  O       15.168     -71.789     198.935
  H       15.793     -71.574     199.652
  H       10.421     -77.096     199.747
  H       15.795     -75.453     203.149
  H       14.863     -75.112     200.855
  H       13.798     -77.919     198.793
  H       12.141     -75.691     200.113
  H       11.290     -75.210     197.890
  H       13.778     -75.602     196.651
  H       16.020     -78.896     204.526
  H       14.562     -73.500     197.573
  H       16.779     -77.342     204.572
  H       12.852     -73.339     197.160
  P       10.738     -76.811     195.925
  C        8.976     -78.504     196.795
  O        9.926     -78.187     195.803
  O       11.608     -76.814     194.575
  O        9.933     -75.553     196.003
  H       11.126     -76.324     193.884
  H        8.575     -79.499     196.589
  H        8.153     -77.785     196.778
  H        9.440     -78.512     197.787
  H       12.614     -69.353     197.416
  H       14.083     -70.281     197.234
  H       13.880     -69.226     198.613

 3  4  5  6  7  8  9  10  11  12  13  24  27  28  29  30  32 0
 6-311+G(2d,p)
 ****
 34  35 0
 6-311+G(2d,p)
 ****
 1  2  14  15  16  17  18  19  20  21  22  23  25  26 0
 3-21G
 ****
 31  33  36  37  38  39  40  41  42  43  44  45  46 0
 3-21G
 ****


