%nproc=1
%NoSave
%Mem=1900MB
#P OB98/GEN NMR

erre ene a

0 1
  C      777.959     354.370     401.294
  O      777.549     355.705     401.532
  H      779.049     354.330     401.316
  H      777.612     354.041     400.307
  H      777.561     353.709     402.067
  P      775.972     355.994     401.437
  C      776.103     358.366     400.356
  O      775.881     357.595     401.529
  C      775.916     359.848     400.671
  O      774.586     360.087     401.189
  C      776.875     360.385     401.729
  O      778.171     360.653     401.220
  C      776.145     361.659     402.128
  O      776.336     362.661     401.115
  C      774.680     361.168     402.159
  N      774.258     360.712     403.480
  C      773.633     361.654     404.306
  O      773.471     362.814     403.923
  N      773.234     361.275     405.566
  C      773.429     360.059     405.965
  N      773.032     359.738     407.229
  C      774.064     359.020     405.127
  C      774.448     359.416     403.913
  O      775.415     355.532     402.868
  O      775.266     355.386     400.270
  H      775.959     363.491     401.462
  H      774.464     355.785     402.951
  H      774.221     358.028     405.504
  H      774.927     358.708     403.242
  H      773.997     361.962     401.829
  H      776.507     362.080     403.069
  H      776.924     359.727     402.600
  H      776.006     360.407     399.729
  H      772.650     360.480     407.804
  H      775.391     358.048     399.593
  H      773.302     358.878     407.683
  H      777.121     358.203     399.986
  P      779.427     360.255     402.129
  C      780.742     362.492     402.112
  O      780.659     361.158     401.642
  O      779.809     358.794     401.602
  O      779.166     360.268     403.610
  H      780.079     358.212     402.338
  H      781.612     362.961     401.702
  H      780.808     362.490     403.180
  H      779.869     363.032     401.809

 6  7  8  9  10  11  12  13  14  15  16  26  30  31  32  33  35 0
 6-311+G(2d,p)
 ****
 37  38 0
 6-311+G(2d,p)
 ****
 1  2  3  4  5  17  18  19  20  21  22  23  24  25 0
 3-21G
 ****
 27  28  29  34  36  39  40  41  42  43  44  45  46 0
 3-21G
 ****


