%nproc=1
%NoSave
%Mem=1900MB
#P OB98/GEN NMR

erre ene a

0 1
  C      -37.433    -316.471     119.614
  O      -36.090    -316.201     119.953
  H      -37.594    -317.550     119.657
  H      -37.649    -316.127     118.600
  H      -38.110    -315.988     120.324
  P      -35.571    -314.686     119.904
  C      -34.301    -315.190     117.714
  O      -34.217    -314.685     119.043
  C      -33.343    -316.375     117.536
  O      -32.050    -315.978     118.054
  C      -33.807    -317.625     118.297
  O      -33.873    -318.784     117.473
  C      -32.881    -317.657     119.508
  O      -32.684    -318.943     120.056
  C      -31.609    -316.978     118.991
  N      -30.794    -316.373     120.045
  C      -29.916    -317.207     120.730
  O      -29.760    -318.405     120.509
  N      -29.174    -316.603     121.715
  C      -29.239    -315.292     122.080
  O      -28.548    -314.809     122.970
  C      -30.208    -314.470     121.339
  C      -30.930    -315.039     120.373
  O      -35.471    -313.996     121.223
  O      -36.612    -313.950     118.935
  H      -32.367    -319.522     119.329
  H      -37.215    -313.395     119.466
  H      -28.522    -317.193     122.208
  H      -30.292    -313.427     121.613
  H      -31.652    -314.460     119.804
  H      -30.981    -317.692     118.458
  H      -33.322    -317.036     120.297
  H      -34.840    -317.507     118.647
  H      -33.223    -316.573     116.466
  H      -34.033    -314.379     117.030
  H      -35.327    -315.509     117.506
  P      -35.216    -319.449     116.929
  C      -34.235    -321.874     117.210
  O      -34.877    -320.913     116.383
  O      -36.065    -318.586     116.058
  O      -36.057    -319.759     118.270
  H      -37.001    -319.668     118.029
  H      -34.099    -322.783     116.661
  H      -34.841    -322.065     118.071
  H      -33.282    -321.498     117.520

 6  7  8  9  10  11  12  13  14  15  16  26  31  32  33  34  35 0
 6-311+G(2d,p)
 ****
 36  37 0
 6-311+G(2d,p)
 ****
 1  2  3  4  5  17  18  19  20  21  22  23  24  25 0
 3-21G
 ****
 27  28  29  30  38  39  40  41  42  43  44  45 0
 3-21G
 ****


