%nproc=1
%NoSave
%Mem=1900MB
#P OB98/GEN NMR

erre ene a

0 1
  C     -152.281      42.447       4.265
  O     -152.259      42.157       5.666
  P     -152.765      40.737       6.216
  C     -150.786      39.133       5.963
  O     -151.519      39.955       6.866
  C     -150.168      37.898       6.630
  O     -148.801      38.159       7.042
  C     -150.918      37.388       7.865
  O     -150.755      35.966       7.862
  C     -150.140      38.020       9.001
  O     -150.366      37.375      10.248
  C     -148.706      37.929       8.459
  N     -147.808      38.881       9.105
  C     -147.319      38.535      10.365
  O     -147.693      37.496      10.913
  N     -146.458      39.396      11.002
  C     -146.189      40.545      10.465
  N     -145.350      41.366      11.153
  C     -146.751      40.990       9.175
  C     -147.536      40.111       8.552
  O     -153.560      39.935       5.238
  O     -153.662      41.118       7.490
  H     -150.096      36.436      10.162
  H     -154.364      40.449       7.601
  H     -146.520      41.968       8.780
  H     -147.993      40.340       7.598
  H     -148.302      36.919       8.606
  H     -150.435      39.071       9.112
  H     -151.977      37.659       7.872
  H     -150.120      37.106       5.872
  H     -145.006      41.035      12.047
  H     -149.988      39.735       5.516
  H     -145.167      42.321      10.885
  H     -151.448      38.821       5.148
  P     -151.967      34.971       7.539
  C     -152.725      35.398       5.133
  O     -151.885      34.632       5.977
  O     -153.307      35.442       8.005
  O     -151.562      33.587       8.240
  H     -152.358      33.028       8.330
  H     -152.431      35.232       4.094
  H     -152.637      36.465       5.360
  H     -153.765      35.085       5.263
  H     -151.907      43.436       4.100
  H     -153.286      42.380       3.903
  H     -151.666      41.742       3.745

 3  4  5  6  7  8  9  10  11  12  13  23  27  28  29  30  32 0
 6-311+G(2d,p)
 ****
 34  35 0
 6-311+G(2d,p)
 ****
 1  2  14  15  16  17  18  19  20  21  22  24  25  26 0
 3-21G
 ****
 31  33  36  37  38  39  40  41  42  43  44  45  46 0
 3-21G
 ****


