%nproc=1
%NoSave
%Mem=1900MB
#P OB98/GEN NMR

erre ene a

0 1
  C      -90.034     214.173     -69.329
  O      -90.180     215.570     -69.134
  P      -88.883     216.491     -69.350
  C      -90.315     218.639     -69.636
  O      -89.286     217.980     -68.910
  C      -90.525     220.061     -69.114
  O      -90.865     219.997     -67.699
  C      -89.301     220.980     -69.250
  O      -89.800     222.295     -69.514
  C      -88.682     220.893     -67.867
  O      -87.760     221.929     -67.581
  C      -89.943     220.868     -67.006
  N      -89.064     222.264     -62.168
  C      -89.341     222.986     -63.277
  N      -89.571     222.544     -64.531
  C      -89.505     221.202     -64.579
  C      -89.215     220.337     -63.539
  C      -88.988     220.918     -62.282
  N      -88.697     220.180     -61.152
  N      -89.209     219.028     -63.975
  C      -89.489     219.102     -65.261
  N      -89.696     220.392     -65.665
  O      -88.775     216.596     -70.942
  O      -87.624     215.962     -68.736
  H      -86.998     221.876     -68.191
  H      -87.845     216.566     -71.235
  H      -89.383     224.063     -63.140
  H      -89.540     218.261     -65.938
  H      -90.408     221.858     -66.932
  H      -88.137     219.945     -67.780
  H      -88.627     220.684     -70.060
  H      -91.387     220.496     -69.636
  H      -91.252     218.088     -69.517
  H      -88.356     220.696     -60.355
  H      -88.440     219.209     -61.290
  H      -90.062     218.644     -70.701
  P      -89.939     222.782     -71.037
  C      -90.816     224.910     -69.896
  O      -90.004     224.383     -70.927
  O      -91.470     222.418     -71.334
  O      -88.962     222.200     -71.999
  H      -92.062     222.766     -70.643
  H      -90.690     225.996     -69.874
  H      -90.516     224.500     -68.928
  H      -91.866     224.680     -70.094
  H      -90.971     213.688     -69.152
  H      -89.302     213.792     -68.648
  H      -89.719     213.984     -70.334

 3  4  5  6  7  8  9  10  11  12  22  25  29  30  31  32 0
 6-311+G(2d,p)
 ****
 33  36  37 0
 6-311+G(2d,p)
 ****
 1  2  13  14  15  16  17  18  19  20  21  23  24  26 0
 3-21G
 ****
 27  28  34  35  38  39  40  41  42  43  44  45  46  47  48 0
 3-21G
 ****


