%nproc=1
%NoSave
%Mem=1900MB
#P OB98/GEN NMR

erre ene a

0 1
  C      566.632    -893.950    -627.479
  O      567.988    -894.340    -627.549
  H      566.197    -894.020    -628.483
  H      566.532    -892.930    -627.116
  H      566.080    -894.640    -626.822
  P      568.883    -894.220    -626.220
  C      569.154    -896.760    -625.831
  O      568.547    -895.550    -625.395
  C      569.463    -897.660    -624.636
  O      570.551    -897.120    -623.856
  C      568.317    -897.820    -623.638
  O      567.274    -898.660    -624.105
  C      569.070    -898.420    -622.461
  O      569.345    -899.800    -622.718
  C      570.373    -897.570    -622.487
  N      570.338    -896.440    -621.568
  C      570.553    -896.720    -620.205
  O      570.766    -897.870    -619.841
  N      570.496    -895.690    -619.309
  C      570.223    -894.490    -619.711
  N      570.128    -893.510    -618.764
  C      570.003    -894.140    -621.131
  C      570.065    -895.160    -621.989
  O      568.754    -892.940    -625.452
  O      570.377    -894.510    -626.720
  H      569.973    -899.840    -623.455
  H      570.966    -894.440    -625.933
  H      569.776    -893.140    -621.414
  H      569.903    -894.980    -623.057
  H      571.235    -898.200    -622.226
  H      568.512    -898.360    -621.525
  H      567.923    -896.840    -623.342
  H      569.796    -898.630    -625.023
  H      570.254    -893.800    -617.798
  H      570.065    -896.500    -626.380
  H      569.662    -892.630    -618.966
  H      568.474    -897.300    -626.503
  P      565.961    -898.810    -623.195
  C      564.179    -897.220    -624.251
  O      565.184    -897.410    -623.262
  O      566.558    -898.830    -621.705
  O      565.096    -900.000    -623.493
  H      566.692    -899.760    -621.407
  H      563.765    -896.238    -624.155
  H      563.406    -897.947    -624.118
  H      564.610    -897.332    -625.224

 6  7  8  9  10  11  12  13  14  15  16  26  30  31  32  33  35 0
 6-311+G(2d,p)
 ****
 37  38 0
 6-311+G(2d,p)
 ****
 1  2  3  4  5  17  18  19  20  21  22  23  24  25 0
 3-21G
 ****
 27  28  29  34  36  39  40  41  42  43  44  45  46 0
 3-21G
 ****


