%nproc=1
%NoSave
%Mem=1900MB
#P OB98/GEN NMR

erre ene a

0 1
  C     -687.096    -532.991     479.105
  O     -687.675    -532.449     477.935
  H     -686.605    -532.194     479.685
  H     -687.876    -533.437     479.714
  H     -686.358    -533.762     478.843
  P     -686.672    -531.714     476.910
  C     -685.594    -529.372     476.716
  O     -686.426    -530.230     477.482
  C     -685.411    -528.038     477.448
  O     -686.652    -527.293     477.339
  C     -685.065    -528.177     478.944
  O     -683.934    -527.365     479.278
  C     -686.287    -527.616     479.658
  O     -685.963    -526.950     480.869
  C     -686.888    -526.674     478.618
  N     -690.291    -523.501     480.708
  C     -689.015    -523.308     480.319
  N     -688.193    -524.168     479.678
  C     -688.828    -525.325     479.410
  C     -690.133    -525.664     479.736
  C     -690.886    -524.690     480.430
  N     -692.162    -524.904     480.868
  N     -690.427    -526.949     479.302
  C     -689.289    -527.392     478.787
  N     -688.300    -526.455     478.841
  O     -687.590    -531.477     475.615
  O     -685.442    -532.498     476.586
  H     -686.800    -526.582     481.232
  H     -687.194    -531.964     474.857
  H     -688.594    -522.334     480.556
  H     -689.139    -528.392     478.389
  H     -686.378    -525.701     478.617
  H     -686.983    -528.442     479.888
  H     -684.874    -529.217     479.235
  H     -684.636    -527.456     476.930
  H     -686.058    -529.180     475.746
  H     -692.585    -524.208     481.471
  H     -692.567    -525.836     480.768
  H     -684.625    -529.856     476.562
  P     -682.492    -528.083     479.131
  C     -680.516    -528.570     480.764
  O     -681.922    -528.337     480.617
  O     -681.563    -526.907     478.560
  O     -682.495    -529.274     478.235
  H     -681.149    -527.192     477.730
  H     -680.286    -528.721     481.798
  H     -679.974    -527.723     480.398
  H     -680.238    -529.440     480.206

 6  7  8  9  10  11  12  13  14  15  25  28  32  33  34  35 0
 6-311+G(2d,p)
 ****
 36  39  40 0
 6-311+G(2d,p)
 ****
 1  2  3  4  5  16  17  18  19  20  21  22  23  24 0
 3-21G
 ****
 26  27  29  30  31  37  38  41  42  43  44  45  46  47  48 0
 3-21G
 ****


