%nproc=1
%NoSave
%Mem=1900MB
#P OB98/GEN NMR

erre ene a

0 1
  C      187.198      12.270    -268.071
  O      187.948      11.729    -267.007
  H      187.042      13.335    -267.887
  H      186.222      11.781    -268.127
  H      187.729      12.149    -269.019
  P      188.432      10.205    -267.143
  C      186.421       9.528    -265.648
  O      187.815       9.413    -265.889
  C      186.119       9.331    -264.162
  O      186.419       7.957    -263.803
  C      186.932      10.246    -263.243
  O      186.098      10.662    -262.158
  C      188.032       9.342    -262.717
  O      188.550       9.778    -261.461
  C      187.326       7.981    -262.684
  N      188.283       6.880    -262.737
  C      189.106       6.709    -261.621
  O      189.011       7.472    -260.658
  N      190.054       5.719    -261.641
  C      190.226       5.016    -262.717
  N      191.203       4.070    -262.687
  C      189.427       5.208    -263.944
  C      188.478       6.141    -263.881
  O      189.991      10.279    -266.796
  O      188.173       9.568    -268.466
  H      187.796      10.062    -260.899
  H      190.495       9.604    -267.288
  H      189.625       4.615    -264.824
  H      187.846       6.357    -264.734
  H      186.725       7.880    -261.769
  H      188.862       9.321    -263.433
  H      187.330      11.127    -263.753
  H      185.044       9.474    -264.005
  H      191.742       3.982    -261.834
  H      185.896       8.758    -266.222
  H      191.453       3.499    -263.479
  H      186.074      10.512    -265.980
  P      185.438      12.118    -262.273
  C      187.127      13.114    -260.568
  O      185.764      12.922    -260.925
  O      183.870      11.823    -262.171
  O      185.784      12.834    -263.537
  H      183.448      11.956    -263.040
  H      187.182      13.663    -259.651
  H      187.625      13.660    -261.342
  H      187.600      12.163    -260.442

 6  7  8  9  10  11  12  13  14  15  16  26  30  31  32  33  35 0
 6-311+G(2d,p)
 ****
 37  38 0
 6-311+G(2d,p)
 ****
 1  2  3  4  5  17  18  19  20  21  22  23  24  25 0
 3-21G
 ****
 27  28  29  34  36  39  40  41  42  43  44  45  46 0
 3-21G
 ****


