%nproc=1
%NoSave
%Mem=1900MB
#P OB98/GEN NMR

erre ene a

0 1
  C      531.708      87.867     491.770
  O      532.358      87.713     490.521
  P      533.382      86.492     490.366
  C      533.161      86.514     487.766
  O      534.018      86.588     488.889
  C      533.982      86.632     486.480
  O      535.110      85.729     486.529
  C      533.209      86.265     485.223
  O      532.363      87.316     484.801
  C      534.346      85.974     484.236
  O      534.842      87.185     483.648
  C      535.408      85.332     485.161
  N      535.459      83.869     485.018
  C      536.107      83.407     483.881
  O      536.588      84.157     483.019
  N      536.156      82.045     483.737
  C      535.597      81.132     484.585
  O      535.621      79.923     484.364
  C      534.899      81.688     485.762
  C      534.869      83.017     485.910
  O      532.438      85.188     490.285
  O      534.387      86.371     491.473
  H      535.604      86.927     483.080
  H      532.864      84.449     490.746
  H      536.653      81.682     482.933
  H      534.440      80.987     486.445
  H      534.349      83.448     486.759
  H      536.391      85.740     484.929
  H      534.014      85.329     483.416
  H      532.628      85.346     485.394
  H      534.374      87.651     486.407
  H      532.432      87.318     487.814
  H      532.615      85.558     487.791
  P      531.164      86.953     483.806
  C      530.370      89.381     484.369
  O      530.497      88.353     483.405
  O      530.120      86.275     484.838
  O      531.587      86.061     482.683
  H      530.171      86.675     485.717
  H      531.208      89.393     485.059
  H      529.433      89.233     484.917
  H      530.324      90.343     483.846
  H      531.058      88.716     491.731
  H      532.440      88.012     492.537
  H      531.136      86.989     491.985

 3  4  5  6  7  8  9  10  11  12  13  23  28  29  30  31  32 0
 6-311+G(2d,p)
 ****
 33  34 0
 6-311+G(2d,p)
 ****
 1  2  14  15  16  17  18  19  20  21  22  24  25  26 0
 3-21G
 ****
 27  35  36  37  38  39  40  41  42  43  44  45 0
 3-21G
 ****


