%nproc=1
%NoSave
%Mem=1900MB
#P OB98/GEN NMR

erre ene a

0 1
  C     -231.883    -987.112     771.647
  O     -231.029    -986.577     770.663
  H     -232.336    -986.280     772.201
  H     -231.334    -987.743     772.352
  H     -232.691    -987.689     771.173
  P     -230.050    -987.587     769.880
  C     -228.583    -988.266     771.895
  O     -228.655    -987.534     770.678
  C     -227.149    -988.291     772.440
  O     -226.301    -989.076     771.587
  C     -226.495    -986.914     772.495
  O     -227.046    -986.052     773.456
  C     -225.008    -987.266     772.549
  O     -224.542    -987.518     773.865
  C     -224.956    -988.567     771.722
  N     -224.311    -988.378     770.425
  C     -222.934    -988.560     770.411
  O     -222.269    -988.846     771.407
  N     -222.319    -988.364     769.195
  C     -222.929    -987.958     768.059
  O     -222.315    -987.757     767.013
  C     -224.398    -987.740     768.143
  C     -225.004    -987.965     769.311
  O     -229.920    -987.356     768.405
  O     -230.622    -989.032     770.253
  H     -225.082    -988.269     774.210
  H     -230.290    -989.723     769.639
  H     -221.328    -988.516     769.162
  H     -224.916    -987.419     767.251
  H     -226.084    -987.815     769.407
  H     -224.401    -989.344     772.274
  H     -224.397    -986.459     772.134
  H     -226.655    -986.427     771.515
  H     -227.159    -988.748     773.435
  H     -228.909    -989.286     771.683
  H     -229.267    -987.821     772.632
  P     -228.094    -984.898     773.105
  C     -226.270    -983.196     772.379
  O     -227.348    -983.465     773.256
  O     -229.479    -985.050     773.673
  O     -228.210    -985.049     771.506
  H     -229.132    -984.840     771.249
  H     -225.874    -982.224     772.588
  H     -226.616    -983.230     771.367
  H     -225.505    -983.930     772.519

 6  7  8  9  10  11  12  13  14  15  16  26  31  32  33  34  35 0
 6-311+G(2d,p)
 ****
 36  37 0
 6-311+G(2d,p)
 ****
 1  2  3  4  5  17  18  19  20  21  22  23  24  25 0
 3-21G
 ****
 27  28  29  30  38  39  40  41  42  43  44  45 0
 3-21G
 ****


