%nproc=1
%NoSave
%Mem=1900MB
#P OB98/GEN NMR

erre ene a

0 1
  C       -0.323    -343.821    -266.645
  O        0.005    -344.559    -265.487
  H        0.038    -344.362    -267.526
  H        0.156    -342.840    -266.614
  H       -1.407    -343.700    -266.729
  P       -0.537    -343.998    -264.086
  C        1.714    -343.086    -263.148
  O        0.433    -342.782    -263.681
  C        2.513    -341.791    -262.960
  O        2.846    -341.257    -264.272
  C        1.736    -340.698    -262.203
  O        2.648    -339.972    -261.371
  C        1.229    -339.803    -263.321
  O        0.948    -338.474    -262.898
  C        2.388    -339.887    -264.318
  N        1.993    -339.520    -265.674
  C        1.408    -338.267    -265.857
  O        1.265    -337.427    -264.974
  N        0.962    -338.003    -267.132
  C        1.028    -338.848    -268.202
  O        0.591    -338.566    -269.315
  C        1.649    -340.159    -267.944
  C        2.093    -340.428    -266.710
  O       -0.135    -345.149    -263.043
  O       -1.989    -343.667    -264.042
  H       -0.855    -345.801    -262.963
  H        0.535    -337.998    -263.648
  H        0.537    -337.101    -267.281
  H        1.710    -340.858    -268.767
  H        2.541    -341.391    -266.489
  H        3.224    -339.255    -263.993
  H        0.315    -340.221    -263.752
  H        0.922    -341.101    -261.600
  H        3.460    -342.023    -262.456
  H        2.245    -343.738    -263.844
  H        1.595    -343.597    -262.189
  P        3.118    -340.677    -260.000
  C        1.670    -339.313    -258.293
  O        1.872    -340.530    -258.992
  O        4.192    -339.628    -259.462
  O        3.623    -342.068    -260.201
  H        3.960    -338.702    -259.640
  H        0.801    -339.397    -257.674
  H        1.532    -338.517    -258.995
  H        2.524    -339.106    -257.683

 6  7  8  9  10  11  12  13  14  15  16  27  31  32  33  34  35 0
 6-311+G(2d,p)
 ****
 36  37 0
 6-311+G(2d,p)
 ****
 1  2  3  4  5  17  18  19  20  21  22  23  24  25 0
 3-21G
 ****
 26  28  29  30  38  39  40  41  42  43  44  45 0
 3-21G
 ****


