%nproc=1
%NoSave
%Mem=1900MB
#P OB98/GEN NMR

erre ene a

0 1
  C     -412.348     175.147     161.158
  O     -413.086     176.284     160.771
  P     -412.685     177.106     159.453
  C     -410.726     178.625     158.752
  O     -411.359     177.930     159.827
  C     -409.214     178.629     158.947
  O     -408.657     177.297     158.775
  C     -408.460     179.482     157.938
  O     -408.665     180.879     157.982
  C     -407.035     178.985     158.132
  O     -406.420     179.599     159.263
  C     -407.274     177.475     158.395
  N     -406.921     176.655     157.237
  C     -405.628     176.816     156.749
  O     -404.803     177.588     157.243
  N     -405.309     176.070     155.650
  C     -406.152     175.236     154.973
  O     -405.811     174.633     153.959
  C     -407.510     175.124     155.521
  C     -407.830     175.827     156.611
  O     -413.778     177.927     158.857
  O     -412.113     175.972     158.471
  H     -405.517     179.232     159.341
  H     -411.344     175.485     158.817
  H     -404.382     176.180     155.268
  H     -408.201     174.462     155.012
  H     -408.827     175.760     157.036
  H     -406.669     177.138     159.246
  H     -406.405     179.200     157.262
  H     -408.769     179.173     156.930
  H     -408.999     178.937     159.976
  H     -411.089     179.658     158.738
  H     -411.006     178.158     157.798
  P     -408.018     181.896     156.929
  C     -405.659     181.956     155.856
  O     -406.426     181.793     157.033
  O     -408.618     183.265     156.872
  O     -408.310     181.150     155.539
  H     -408.431     181.813     154.837
  H     -404.604     181.808     156.102
  H     -405.783     182.961     155.458
  H     -405.950     181.214     155.105
  H     -412.765     174.739     162.055
  H     -411.330     175.425     161.333
  H     -412.389     174.414     160.380

 3  4  5  6  7  8  9  10  11  12  13  23  28  29  30  31  32 0
 6-311+G(2d,p)
 ****
 33  34 0
 6-311+G(2d,p)
 ****
 1  2  14  15  16  17  18  19  20  21  22  24  25  26  27 0
 3-21G
 ****
 35  36  37  38  39  40  41  42  43  44  45 0
 3-21G
 ****


