%nproc=1
%NoSave
%Mem=1900MB
#P OB98/GEN NMR

erre ene a

0 1
  C     -330.526     709.538     262.719
  O     -329.903     708.371     263.215
  H     -329.749     710.242     262.409
  H     -331.122     710.000     263.509
  H     -331.160     709.315     261.861
  P     -330.788     707.059     263.439
  C     -330.097     705.790     261.300
  O     -330.026     705.849     262.719
  C     -330.511     704.385     260.831
  O     -330.739     704.413     259.397
  C     -329.404     703.358     261.090
  O     -329.923     702.046     261.276
  C     -328.605     703.391     259.794
  O     -327.853     702.199     259.568
  C     -329.713     703.635     258.762
  N     -328.909     703.337     253.741
  C     -329.224     702.332     254.633
  N     -329.346     701.081     254.111
  N     -329.384     702.519     255.916
  C     -329.161     703.809     256.294
  C     -328.823     704.887     255.512
  C     -328.684     704.659     254.080
  O     -328.386     705.514     253.254
  N     -328.679     706.024     256.256
  C     -328.921     705.640     257.497
  N     -329.247     704.309     257.568
  O     -332.056     707.291     262.481
  O     -331.216     706.797     264.852
  H     -328.494     701.491     259.358
  H     -332.811     706.752     262.775
  H     -328.820     703.140     252.757
  H     -328.891     706.285     258.366
  H     -330.163     702.681     258.451
  H     -327.893     704.223     259.847
  H     -329.035     700.865     253.182
  H     -328.780     703.617     261.938
  H     -329.264     700.306     254.777
  H     -331.465     704.099     261.296
  H     -329.103     706.039     260.919
  H     -330.791     706.542     260.922
  P     -329.834     701.384     262.734
  C     -332.035     702.236     263.939
  O     -331.306     701.193     263.333
  O     -329.204     702.544     263.640
  O     -329.033     700.128     262.799
  H     -328.330     702.277     263.969
  H     -332.987     701.867     264.259
  H     -332.179     703.027     263.233
  H     -331.493     702.606     264.784

 6  7  8  9  10  11  12  13  14  15  26  29  33  34 0
 6-311+G(2d,p)
 ****
 36  38  39  40  41 0
 6-311+G(2d,p)
 ****
 1  2  3  4  5  16  17  18  19  20  21  22  23  24  25 0
 3-21G
 ****
 27  28  30  31  32  35  37  42  43  44  45  46  47 0
 3-21G
 ****
 48  49 0
 3-21G
 ****


