%nproc=1
%NoSave
%Mem=1900MB
#P OB98/GEN NMR

erre ene a

0 1
  C     -983.495    -373.344     798.746
  O     -982.190    -372.827     798.914
  H     -984.138    -372.556     798.352
  H     -983.896    -373.684     799.703
  H     -983.477    -374.174     798.033
  P     -981.112    -373.811     799.592
  C     -979.972    -374.092     797.264
  O     -980.613    -374.721     798.366
  C     -978.535    -374.602     797.139
  O     -978.519    -376.040     797.005
  C     -977.781    -374.074     795.919
  O     -977.316    -372.745     796.076
  C     -976.638    -375.072     795.873
  O     -975.693    -374.773     796.914
  C     -977.387    -376.387     796.153
  N     -977.850    -377.066     794.938
  C     -976.907    -377.829     794.246
  O     -975.742    -377.914     794.658
  N     -977.284    -378.451     793.080
  C     -978.500    -378.343     792.649
  N     -978.812    -378.984     791.487
  C     -979.534    -377.558     793.351
  C     -979.144    -376.953     794.473
  O     -982.017    -374.823     800.436
  O     -980.023    -373.152     800.372
  H     -975.525    -373.816     796.873
  H     -981.459    -375.565     800.782
  H     -980.539    -377.482     792.953
  H     -979.849    -376.365     795.045
  H     -976.758    -377.091     796.723
  H     -976.091    -375.050     794.925
  H     -978.378    -374.174     795.003
  H     -978.008    -374.353     798.066
  H     -978.069    -379.458     791.001
  H     -979.974    -373.008     797.431
  H     -979.689    -378.832     791.004
  H     -980.515    -374.306     796.336
  P     -977.544    -371.736     794.850
  C     -979.431    -370.507     796.160
  O     -979.044    -371.182     794.969
  O     -977.603    -372.708     793.586
  O     -976.479    -370.689     794.698
  H     -977.215    -372.280     792.797
  H     -980.454    -370.203     796.081
  H     -978.812    -369.645     796.299
  H     -979.318    -371.165     796.996

 6  7  8  9  10  11  12  13  14  15  16  26  30  31  32  33  35 0
 6-311+G(2d,p)
 ****
 37  38 0
 6-311+G(2d,p)
 ****
 1  2  3  4  5  17  18  19  20  21  22  23  24  25 0
 3-21G
 ****
 27  28  29  34  36  39  40  41  42  43  44  45  46 0
 3-21G
 ****


