%nproc=1
%NoSave
%Mem=1900MB
#P OB98/GEN NMR

erre ene a

0 1
  C     -574.332     991.281    -179.461
  O     -574.351     991.494    -178.061
  H     -573.410     990.768    -179.759
  H     -575.182     990.663    -179.735
  H     -574.402     992.242    -179.984
  P     -573.112     992.294    -177.446
  C     -572.760     990.767    -175.379
  O     -573.143     992.046    -175.860
  C     -572.814     990.727    -173.858
  O     -571.879     991.662    -173.292
  C     -574.166     991.115    -173.254
  O     -575.097     990.044    -173.317
  C     -573.761     991.423    -171.820
  O     -573.633     990.192    -171.071
  C     -572.383     992.075    -171.994
  N     -572.427     996.187    -168.915
  C     -572.412     994.844    -168.644
  N     -572.417     993.821    -169.505
  C     -572.414     994.263    -170.765
  C     -572.439     995.582    -171.206
  C     -572.456     996.572    -170.210
  N     -572.487     997.919    -170.491
  N     -572.422     995.659    -172.579
  C     -572.392     994.409    -172.986
  N     -572.397     993.520    -171.924
  O     -573.536     993.828    -177.587
  O     -571.788     992.033    -178.101
  H     -573.217     989.541    -171.680
  H     -572.750     994.363    -177.789
  H     -572.401     994.599    -167.578
  H     -572.367     994.083    -174.013
  H     -571.670     991.706    -171.251
  H     -574.482     992.044    -171.286
  H     -574.566     992.034    -173.737
  H     -572.529     989.718    -173.524
  H     -571.735     990.538    -175.700
  H     -572.297     998.581    -169.747
  H     -572.499     998.209    -171.470
  H     -573.433     990.021    -175.800
  P     -576.527     990.334    -174.001
  C     -578.186     989.759    -172.093
  O     -577.553     989.332    -173.307
  O     -576.347     989.719    -175.474
  O     -576.921     991.773    -174.052
  H     -576.955     990.168    -176.094
  H     -578.843     988.990    -171.744
  H     -578.747     990.651    -172.278
  H     -577.440     989.954    -171.351

 6  7  8  9  10  11  12  13  14  15  25  28  32  33  34  35 0
 6-311+G(2d,p)
 ****
 36  39  40 0
 6-311+G(2d,p)
 ****
 1  2  3  4  5  16  17  18  19  20  21  22  23  24 0
 3-21G
 ****
 26  27  29  30  31  37  38  41  42  43  44  45  46  47  48 0
 3-21G
 ****


