%nproc=1
%NoSave
%Mem=1900MB
#P OB98/GEN NMR

erre ene a

0 1
  C     -177.611    -171.682     219.720
  O     -177.601    -171.465     221.122
  H     -178.621    -171.968     219.422
  H     -176.922    -172.490     219.465
  H     -177.329    -170.770     219.193
  P     -176.196    -171.018     221.758
  C     -175.446    -173.508     221.622
  O     -175.137    -172.151     221.345
  C     -174.446    -174.440     220.907
  O     -173.094    -174.107     221.367
  C     -174.663    -175.936     221.205
  O     -174.209    -176.677     220.060
  C     -173.719    -176.155     222.378
  O     -173.517    -177.536     222.608
  C     -172.536    -175.329     221.901
  N     -168.835    -177.203     224.909
  C     -169.550    -177.757     223.904
  N     -170.508    -177.194     223.134
  C     -170.694    -175.908     223.488
  C     -170.038    -175.197     224.484
  C     -169.069    -175.907     225.226
  N     -168.350    -175.337     226.250
  N     -170.515    -173.896     224.544
  C     -171.434    -173.823     223.610
  N     -171.580    -175.010     222.944
  O     -176.413    -171.248     223.330
  O     -175.774    -169.616     221.462
  H     -172.881    -177.899     221.956
  H     -176.687    -170.414     223.755
  H     -169.318    -178.807     223.682
  H     -172.017    -172.947     223.362
  H     -171.983    -175.820     221.091
  H     -174.141    -175.743     223.297
  H     -175.709    -176.186     221.410
  H     -174.473    -174.232     219.834
  H     -176.462    -173.717     221.262
  H     -175.396    -173.693     222.706
  H     -167.688    -175.918     226.741
  H     -168.527    -174.374     226.506
  P     -175.273    -177.178     218.969
  C     -175.568    -179.370     220.363
  O     -176.189    -178.323     219.621
  O     -174.356    -178.016     217.957
  O     -176.016    -176.095     218.238
  H     -174.752    -177.997     217.074
  H     -176.317    -180.043     220.725
  H     -175.034    -178.952     221.190
  H     -174.888    -179.901     219.730

 6  7  8  9  10  11  12  13  14  15  25  28  32  33  34  35 0
 6-311+G(2d,p)
 ****
 36  37  40 0
 6-311+G(2d,p)
 ****
 1  2  3  4  5  16  17  18  19  20  21  22  23  24 0
 3-21G
 ****
 26  27  29  30  31  38  39 41  42  43  44  45  46  47  48 0
 3-21G
 ****


