%nproc=1
%NoSave
%Mem=1900MB
#P OB98/GEN NMR

erre ene a

0 1
  C       73.383      51.325     -27.231
  O       74.359      51.431     -26.214
  H       73.587      50.425     -27.817
  H       73.423      52.192     -27.895
  H       72.385      51.237     -26.793
  P       74.307      52.697     -25.235
  C       72.669      53.538     -23.424
  O       72.880      52.637     -24.505
  C       71.303      54.206     -23.551
  O       71.275      55.077     -24.698
  C       70.139      53.232     -23.723
  O       69.739      52.704     -22.470
  C       69.094      54.152     -24.329
  O       68.523      54.983     -23.298
  C       69.945      55.011     -25.283
  N       70.266      56.248     -30.194
  C       70.032      57.049     -29.093
  N       69.824      58.360     -29.338
  N       69.993      56.603     -27.864
  C       70.147      55.262     -27.777
  C       70.367      54.362     -28.795
  C       70.474      54.878     -30.144
  O       70.705      54.205     -31.145
  N       70.379      53.071     -28.332
  C       70.221      53.195     -27.027
  N       70.066      54.506     -26.640
  O       74.614      54.024     -25.858
  O       75.332      52.332     -24.062
  H       69.258      55.280     -22.731
  H       76.225      52.674     -24.256
  H       70.276      56.647     -31.118
  H       70.215      52.375     -26.320
  H       69.567      56.037     -25.360
  H       68.271      53.610     -24.798
  H       69.694      58.735     -30.266
  H       70.379      52.443     -24.444
  H       69.594      58.952     -28.549
  H       71.156      54.839     -22.665
  H       73.465      54.286     -23.458
  H       72.729      53.007     -22.468
  P       68.913      51.330     -22.362
  C       69.539      48.881     -22.910
  O       69.777      50.252     -23.176
  O       67.485      51.424     -22.774
  O       69.130      50.857     -20.853
  H       68.485      51.268     -20.224
  H       70.182      48.282     -23.521
  H       68.518      48.647     -23.130
  H       69.737      48.678     -21.878

 6  7  8  9  10  11  12  13  14  15  26  29  33  34 0
 6-311+G(2d,p)
 ****
 36  38  39  40  41 0
 6-311+G(2d,p)
 ****
 1  2  3  4  5  16  17  18  19  20  21  22  23  24  25 0
 3-21G
 ****
 27  28  30  31  32  35  37  42  43  44  45  46  47 0
 3-21G
 ****
 48  49 0
 3-21G
 ****


