%nproc=1
%NoSave
%Mem=1900MB
#P OB98/GEN NMR

erre ene a

0 1
  C     -199.862     280.190    -119.270
  O     -200.913     280.324    -120.214
  P     -202.297     279.514    -120.056
  C     -202.943     277.017    -120.289
  O     -201.967     278.019    -120.537
  C     -202.329     275.622    -120.477
  O     -201.344     275.407    -119.433
  C     -203.350     274.472    -120.394
  O     -202.914     273.464    -121.314
  C     -203.206     273.990    -118.962
  O     -203.658     272.663    -118.787
  C     -201.702     274.186    -118.742
  N     -201.349     274.271    -117.328
  C     -201.265     273.076    -116.616
  O     -201.504     271.989    -117.149
  N     -200.906     273.127    -115.284
  C     -200.739     274.270    -114.701
  N     -200.328     274.267    -113.401
  C     -200.930     275.565    -115.398
  C     -201.204     275.486    -116.696
  O     -203.467     280.139    -120.733
  O     -202.473     279.326    -118.481
  H     -203.568     272.427    -117.844
  H     -202.905     280.104    -118.047
  H     -200.800     276.493    -114.863
  H     -201.334     276.382    -117.291
  H     -201.138     273.378    -119.218
  H     -203.785     274.639    -118.298
  H     -204.364     274.786    -120.653
  H     -201.803     275.603    -121.434
  H     -200.045     273.371    -113.016
  H     -203.753     277.147    -121.012
  H     -199.878     275.076    -112.995
  H     -203.348     277.138    -119.283
  P     -204.034     272.568    -122.048
  C     -205.888     270.927    -121.261
  O     -204.667     271.575    -120.962
  O     -203.132     271.573    -122.930
  O     -204.991     273.299    -122.935
  H     -203.654     271.265    -123.692
  H     -206.162     270.289    -120.411
  H     -205.783     270.299    -122.146
  H     -206.685     271.667    -121.413
  H     -199.040     280.810    -119.561
  H     -199.543     279.169    -119.233
  H     -200.210     280.490    -118.304

 3  4  5  6  7  8  9  10  11  12  13  23  27  28  29  30  32 0
 6-311+G(2d,p)
 ****
 34  35 0
 6-311+G(2d,p)
 ****
 1  2  14  15  16  17  18  19  20  21  22  24  25  26 0
 3-21G
 ****
 31  33  36  37  38  39  40  41  42  43  44  45  46 0
 3-21G
 ****


