%nproc=1
%NoSave
%Mem=1900MB
#P OB98/GEN NMR

erre ene a

0 1
  C        3.482    -241.211      32.976
  O        3.807    -242.568      33.310
  P        3.076    -243.739      32.492
  C        3.737    -246.256      32.525
  O        3.325    -245.117      33.269
  C        3.714    -247.507      33.407
  O        4.563    -247.361      34.571
  C        2.325    -247.845      33.947
  O        1.553    -248.566      32.991
  C        2.677    -248.752      35.116
  O        2.972    -250.080      34.639
  C        3.949    -248.092      35.668
  N        5.604    -246.433      40.152
  C        6.139    -247.380      39.297
  N        7.290    -247.963      39.693
  N        5.596    -247.722      38.162
  C        4.455    -247.039      37.882
  C        3.827    -246.085      38.648
  C        4.429    -245.727      39.914
  O        3.994    -244.908      40.717
  N        2.685    -245.629      38.041
  C        2.639    -246.290      36.899
  N        3.679    -247.174      36.763
  O        3.997    -243.895      31.190
  O        1.654    -243.444      32.134
  H        3.321    -250.581      35.403
  H        3.463    -244.230      30.445
  H        6.061    -246.215      41.017
  H        1.870    -246.170      36.142
  H        4.682    -248.822      36.023
  H        1.855    -248.845      35.831
  H        7.790    -247.712      40.533
  H        1.810    -246.949      34.302
  H        7.720    -248.633      39.064
  H        4.080    -248.352      32.812
  H        4.747    -246.102      32.131
  H        3.092    -246.365      31.654
  P        0.150    -247.939      32.534
  C       -1.168    -247.957      30.300
  O       -0.160    -248.554      31.093
  O        0.524    -246.410      32.237
  O       -0.941    -248.055      33.547
  H       -0.233    -245.835      32.431
  H       -1.129    -248.397      29.297
  H       -1.012    -246.881      30.216
  H       -2.155    -248.160      30.734
  H        4.042    -240.546      33.600
  H        2.436    -241.047      33.129
  H        3.725    -241.028      31.950

 3  4  5  6  7  8  9  10  11  12  23  26  30  31 0
 6-311+G(2d,p)
 ****
 33  35  36  37  38 0
 6-311+G(2d,p)
 ****
 1  2  13  14  15  16  17  18  19  20  21  22  24  25 0
 3-21G
 ****
 27  28  29  32  34  39  40  41  42  43  44  45  46  47  48  49 0
 3-21G
 ****


