%nproc=1
%NoSave
%Mem=1900MB
#P OB98/GEN NMR

erre ene a

0 1
  C      247.652    -165.725    -152.579
  O      248.888    -165.196    -152.145
  H      247.271    -166.404    -151.810
  H      247.794    -166.288    -153.504
  H      246.922    -164.927    -152.736
  P      249.519    -164.019    -153.034
  C      250.274    -163.889    -155.514
  O      250.079    -164.708    -154.371
  C      250.309    -164.746    -156.776
  O      249.085    -165.504    -156.905
  C      250.454    -163.951    -158.069
  O      251.809    -163.611    -158.332
  C      249.935    -164.961    -159.078
  O      250.947    -165.955    -159.335
  C      248.757    -165.587    -158.319
  N      244.564    -165.528    -161.166
  C      245.672    -166.352    -161.234
  N      245.665    -167.289    -162.206
  N      246.697    -166.263    -160.427
  C      246.570    -165.274    -159.512
  C      245.523    -164.394    -159.344
  C      244.394    -164.509    -160.238
  O      243.378    -163.819    -160.206
  N      245.750    -163.537    -158.299
  C      246.940    -163.880    -157.850
  N      247.484    -164.926    -158.555
  O      250.853    -163.626    -152.236
  O      248.641    -162.831    -153.241
  H      250.607    -166.525    -160.049
  H      250.994    -162.663    -152.315
  H      243.807    -165.630    -161.820
  H      247.450    -163.411    -157.019
  H      248.618    -166.646    -158.564
  H      249.681    -164.507    -160.037
  H      244.931    -167.377    -162.892
  H      249.805    -163.065    -158.072
  H      246.450    -167.924    -162.255
  H      251.130    -165.467    -156.673
  H      251.223    -163.353    -155.415
  H      249.458    -163.163    -155.573
  P      252.095    -162.540    -159.496
  C      251.967    -162.600    -162.089
  O      251.902    -163.337    -160.874
  O      253.679    -162.330    -159.409
  O      251.348    -161.256    -159.368
  H      253.922    -161.466    -159.792
  H      251.821    -163.263    -162.916
  H      252.926    -162.132    -162.172
  H      251.203    -161.851    -162.093

 6  7  8  9  10  11  12  13  14  15  26  29  33  34 0
 6-311+G(2d,p)
 ****
 36  38  39  40  41 0
 6-311+G(2d,p)
 ****
 1  2  3  4  5  16  17  18  19  20  21  22  23  24  25 0
 3-21G
 ****
 27  28  30  31  32  35  37  42  43  44  45  46  47 0
 3-21G
 ****
 48  49 0
 3-21G
 ****


