%nproc=1
%NoSave
%Mem=1900MB
#P OB98/GEN NMR

erre ene a

0 1
  C      985.217     527.019    -101.580
  O      984.819     526.663    -102.889
  H      985.808     527.939    -101.624
  H      985.834     526.219    -101.149
  H      984.341     527.189    -100.946
  P      983.753     525.473    -103.012
  C      984.037     522.871    -102.799
  O      984.410     524.165    -102.342
  C      984.937     521.811    -102.147
  O      986.313     522.011    -102.512
  C      984.951     521.855    -100.619
  O      983.760     521.373    -100.048
  C      986.159     520.973    -100.332
  O      985.818     519.589    -100.328
  C      987.096     521.298    -101.520
  N      988.270     522.063    -101.106
  C      989.088     521.434    -100.129
  O      988.775     520.317     -99.723
  N      990.161     522.120     -99.641
  C      990.387     523.333    -100.061
  N      991.465     523.963     -99.502
  C      989.569     524.020    -101.068
  C      988.536     523.332    -101.551
  O      983.795     525.135    -104.577
  O      982.387     525.797    -102.492
  H      985.702     519.334    -101.270
  H      984.686     525.017    -104.924
  H      989.828     525.019    -101.383
  H      987.870     523.771    -102.294
  H      987.447     520.372    -101.993
  H      986.594     521.197     -99.360
  H      985.178     522.871    -100.279
  H      984.615     520.821    -102.510
  H      991.971     523.462     -98.765
  H      984.115     522.814    -103.888
  H      991.710     524.938     -99.682
  H      982.992     522.711    -102.532
  P      983.434     521.568     -98.499
  C      983.616     520.019     -96.444
  O      984.163     520.364     -97.715
  O      981.993     521.731     -98.150
  O      984.357     522.830     -98.100
  H      985.303     522.702     -98.241
  H      984.178     519.213     -96.021
  H      982.596     519.719     -96.564
  H      983.664     520.867     -95.793

 6  7  8  9  10  11  12  13  14  15  16  26  30  31  32  33  35 0
 6-311+G(2d,p)
 ****
 37  38 0
 6-311+G(2d,p)
 ****
 1  2  3  4  5  17  18  19  20  21  22  23  24  25 0
 3-21G
 ****
 27  28  29  34  36  39  40  41  42  43  44  45  46 0
 3-21G
 ****


