%nproc=1
%NoSave
%Mem=1900MB
#P OB98/GEN NMR

erre ene a

0 1
  C     -478.958    -897.180    1465.850
  O     -478.737    -897.010    1464.449
  P     -478.741    -895.570    1463.742
  C     -476.144    -895.510    1463.822
  O     -477.321    -895.310    1463.028
  C     -474.965    -896.000    1462.963
  O     -475.205    -897.290    1462.461
  C     -474.665    -895.110    1461.751
  O     -474.003    -893.910    1462.155
  C     -473.794    -896.060    1460.918
  O     -472.441    -896.060    1461.380
  C     -474.478    -897.440    1461.222
  N     -475.347    -897.880    1460.119
  C     -474.793    -898.780    1459.212
  O     -473.608    -899.120    1459.330
  N     -475.600    -899.250    1458.208
  C     -476.815    -898.800    1458.036
  N     -477.539    -899.320    1457.033
  C     -477.393    -897.760    1458.931
  C     -476.611    -897.360    1459.937
  O     -479.174    -894.430    1464.636
  O     -479.753    -895.710    1462.498
  H     -471.934    -896.650    1460.785
  H     -480.198    -894.870    1462.330
  H     -478.411    -897.390    1458.752
  H     -476.982    -896.630    1460.645
  H     -473.718    -898.230    1461.399
  H     -473.790    -895.810    1459.859
  H     -475.595    -894.880    1461.228
  H     -474.084    -896.040    1463.651
  H     -477.118    -900.000    1456.437
  H     -476.390    -896.280    1464.598
  H     -478.493    -899.030    1456.832
  H     -475.917    -894.570    1464.333
  P     -474.483    -892.510    1461.529
  C     -475.051    -891.310    1463.750
  O     -474.152    -891.380    1462.615
  O     -475.854    -892.490    1460.976
  O     -473.381    -892.210    1460.391
  H     -473.802    -891.700    1459.684
  H     -474.539    -890.800    1464.571
  H     -475.357    -892.300    1464.066
  H     -475.925    -890.720    1463.463
  H     -478.910    -898.221    1466.095
  H     -479.923    -896.797    1466.108
  H     -478.206    -896.650    1466.397

 3  4  5  6  7  8  9  10  11  12  13  23  27  28  29  30  32 0
 6-311+G(2d,p)
 ****
 34  35 0
 6-311+G(2d,p)
 ****
 1  2  14  15  16  17  18  19  20  21  22  24  25  26 0
 3-21G
 ****
 31  33  36  37  38  39  40  41  42  43  44  45  46 0
 3-21G
 ****


