%nproc=1
%NoSave
%Mem=1900MB
#P OB98/GEN NMR

erre ene a

0 1
  C     -116.857      46.150     -64.557
  O     -117.550      45.458     -63.539
  H     -115.898      46.492     -64.160
  H     -117.432      47.020     -64.886
  H     -116.672      45.485     -65.404
  P     -119.034      44.958     -63.883
  C     -120.024      46.193     -61.821
  O     -120.045      46.018     -63.233
  C     -120.977      47.320     -61.433
  O     -120.385      48.598     -61.766
  C     -122.310      47.288     -62.167
  O     -123.212      46.338     -61.625
  C     -122.783      48.717     -61.967
  O     -123.446      48.884     -60.706
  C     -121.467      49.516     -62.016
  N     -121.310      50.222     -63.285
  C     -121.540      51.595     -63.244
  O     -121.853      52.198     -62.219
  N     -121.434      52.252     -64.438
  C     -121.178      51.677     -65.648
  O     -121.153      52.319     -66.692
  C     -120.962      50.223     -65.633
  C     -121.040      49.569     -64.470
  O     -119.203      43.658     -62.966
  O     -119.280      44.662     -65.326
  H     -119.157      42.856     -63.519
  H     -122.784      48.660     -60.022
  H     -121.594      53.248     -64.429
  H     -120.758      49.733     -66.577
  H     -120.895      48.494     -64.434
  H     -121.440      50.258     -61.207
  H     -123.487      49.006     -62.743
  H     -122.149      47.113     -63.238
  H     -121.133      47.286     -60.347
  H     -119.013      46.455     -61.497
  H     -120.314      45.253     -61.342
  P     -124.484      45.925     -62.511
  C     -126.178      46.842     -60.718
  O     -125.674      46.892     -62.045
  O     -124.839      44.503     -61.872
  O     -124.199      45.909     -63.975
  H     -124.552      44.442     -60.944
  H     -126.963      47.560     -60.607
  H     -125.391      47.065     -60.029
  H     -126.560      45.863     -60.518

 6  7  8  9  10  11  12  13  14  15  16  27  31  32  33  34  35 0
 6-311+G(2d,p)
 ****
 36  37 0
 6-311+G(2d,p)
 ****
 1  2  3  4  5  17  18  19  20  21  22  23  24  25 0
 3-21G
 ****
 26  28  29  30  38  39  40  41  42  43  44  45 0
 3-21G
 ****


