%nproc=1
%NoSave
%Mem=1900MB
#P OB98/GEN NMR

erre ene a

0 1
  C       78.422      23.802      71.200
  O       79.182      23.308      72.286
  H       78.774      24.808      70.959
  H       77.363      23.856      71.466
  H       78.555      23.166      70.321
  P       78.832      21.856      72.863
  C       77.094      22.957      74.426
  O       77.341      21.955      73.447
  C       75.629      22.934      74.850
  O       74.775      23.240      73.731
  C       75.155      21.586      75.397
  O       75.527      21.439      76.755
  C       73.653      21.728      75.216
  O       73.118      22.578      76.252
  C       73.565      22.444      73.855
  N       70.485      19.565      71.030
  C       70.239      20.218      72.222
  N       69.008      20.054      72.752
  N       71.124      20.952      72.844
  C       72.331      20.967      72.235
  C       72.702      20.347      71.063
  C       71.693      19.591      70.349
  O       71.863      19.018      69.276
  N       74.039      20.512      70.806
  C       74.466      21.276      71.795
  N       73.468      21.573      72.697
  O       79.823      21.274      73.826
  O       78.654      20.944      71.560
  H       72.147      22.561      76.163
  H       79.493      20.511      71.316
  H       69.766      19.006      70.600
  H       75.478      21.645      71.904
  H       72.712      23.132      73.806
  H       73.126      20.775      75.277
  H       68.338      19.387      72.401
  H       75.510      20.755      74.778
  H       68.829      20.479      73.655
  H       75.483      23.730      75.593
  H       77.347      23.924      73.979
  H       77.733      22.800      75.302
  P       75.956      20.011      77.359
  C       73.932      20.192      78.959
  O       74.620      19.404      78.002
  O       77.129      20.047      78.276
  O       76.157      19.084      76.074
  H       77.061      19.163      75.678
  H       73.066      19.664      79.299
  H       73.633      21.117      78.511
  H       74.578      20.390      79.789

 6  7  8  9  10  11  12  13  14  15  26  29  33  34 0
 6-311+G(2d,p)
 ****
 36  38  39  40  41 0
 6-311+G(2d,p)
 ****
 1  2  3  4  5  16  17  18  19  20  21  22  23  24  25 0
 3-21G
 ****
 27  28  30  31  32  35  37  42  43  44  45  46  47 0
 3-21G
 ****
 48  49 0
 3-21G
 ****


