%nproc=1
%NoSave
%Mem=1900MB
#P OB98/GEN NMR

erre ene a

0 1
  C      -43.815    -124.143     -41.835
  O      -43.938    -124.047     -40.430
  H      -44.686    -123.672     -42.297
  H      -43.785    -125.195     -42.133
  H      -42.913    -123.632     -42.180
  P      -42.666    -124.494     -39.562
  C      -42.402    -127.015     -40.127
  O      -42.880    -126.045     -39.205
  C      -42.070    -128.314     -39.399
  O      -41.178    -128.054     -38.292
  C      -43.280    -129.033     -38.812
  O      -43.948    -129.822     -39.787
  C      -42.603    -129.908     -37.767
  O      -41.983    -131.040     -38.408
  C      -41.534    -128.961     -37.210
  N      -43.583    -129.185     -32.576
  C      -43.299    -130.198     -33.471
  N      -43.618    -131.451     -33.080
  N      -42.760    -130.003     -34.647
  C      -42.506    -128.698     -34.908
  C      -42.739    -127.605     -34.103
  C      -43.329    -127.836     -32.804
  O      -43.579    -126.978     -31.963
  N      -42.338    -126.444     -34.707
  C      -41.883    -126.827     -35.883
  N      -41.970    -128.188     -36.058
  O      -42.898    -123.759     -38.156
  O      -41.339    -124.144     -40.144
  H      -41.433    -130.688     -39.131
  H      -42.031    -123.486     -37.798
  H      -44.010    -129.387     -31.690
  H      -41.481    -126.166     -36.639
  H      -40.622    -129.491     -36.912
  H      -43.306    -130.302     -37.031
  H      -44.080    -131.665     -32.210
  H      -43.963    -128.332     -38.315
  H      -43.389    -132.214     -33.705
  H      -41.535    -128.968     -40.101
  H      -41.502    -126.633     -40.619
  H      -43.173    -127.195     -40.885
  P      -45.454    -129.408     -40.173
  C      -46.268    -130.480     -37.952
  O      -46.400    -130.425     -39.367
  O      -45.584    -129.902     -41.691
  O      -45.766    -127.958     -40.024
  H      -46.289    -129.402     -42.145
  H      -46.958    -131.197     -37.557
  H      -46.478    -129.517     -37.537
  H      -45.269    -130.768     -37.698

 6  7  8  9  10  11  12  13  14  15  26  29  33  34 0
 6-311+G(2d,p)
 ****
 36  38  39  40  41 0
 6-311+G(2d,p)
 ****
 1  2  3  4  5  16  17  18  19  20  21  22  23  24  25 0
 3-21G
 ****
 27  28  30  31  32  35  37  42  43  44  45  46  47 0
 3-21G
 ****
 48  49 0
 3-21G
 ****


