%nproc=1
%NoSave
%Mem=1900MB
#P OB98/GEN NMR

erre ene a

0 1
  C        9.933     -53.660     -29.366
  O        8.620     -54.218     -29.281
  P        8.472     -55.552     -28.401
  C        7.674     -54.765     -26.062
  O        7.311     -55.307     -27.323
  C        6.993     -55.531     -24.927
  O        7.522     -55.182     -23.634
  C        5.493     -55.283     -24.845
  O        4.818     -56.062     -25.817
  C        5.185     -55.710     -23.416
  O        4.993     -57.136     -23.325
  C        6.455     -55.291     -22.657
  N        7.176     -53.065     -18.162
  C        7.264     -54.398     -18.514
  N        7.619     -55.256     -17.535
  N        7.028     -54.847     -19.719
  C        6.684     -53.876     -20.597
  C        6.591     -52.522     -20.374
  C        6.852     -52.038     -19.035
  O        6.809     -50.866     -18.679
  N        6.277     -51.845     -21.525
  C        6.058     -52.802     -22.407
  N        6.354     -54.048     -21.913
  O        9.814     -55.570     -27.530
  O        8.333     -56.792     -29.221
  H        5.861     -57.577     -23.363
  H       10.396     -56.292     -27.832
  H        7.361     -52.776     -17.217
  H        5.712     -52.646     -23.418
  H        6.760     -56.055     -21.933
  H        4.265     -55.252     -23.044
  H        7.819     -54.979     -16.586
  H        5.280     -54.215     -24.973
  H        7.697     -56.237     -17.775
  H        7.183     -56.600     -25.092
  H        7.395     -53.711     -26.014
  H        8.764     -54.806     -25.962
  P        3.911     -55.295     -26.893
  C        5.237     -55.854     -29.052
  O        4.067     -56.064     -28.287
  O        4.702     -53.920     -27.120
  O        2.508     -55.042     -26.453
  H        4.070     -53.178     -27.127
  H        5.446     -56.757     -29.631
  H        6.100     -55.630     -28.420
  H        5.071     -55.022     -29.742
  H        9.908     -52.780     -29.974
  H       10.597     -54.376     -29.802
  H       10.277     -53.406     -28.385

 3  4  5  6  7  8  9  10  11  12  23  26  30  31 0
 6-311+G(2d,p)
 ****
 33  35  36  37  38 0
 6-311+G(2d,p)
 ****
 1  2  13  14  15  16  17  18  19  20  21  22  24  25 0
 3-21G
 ****
 27  28  29  32  34  39  40  41  42  43  44  45  46  47  48  49 0
 3-21G
 ****


