%nproc=1
%NoSave
%Mem=1900MB
#P OB98/GEN NMR

erre ene a

0 1
  C     -149.033    -152.832    -107.647
  O     -149.140    -154.253    -107.795
  P     -148.655    -155.284    -106.665
  C     -150.615    -155.091    -104.997
  O     -149.236    -154.827    -105.245
  C     -150.846    -155.601    -103.571
  O     -150.474    -154.602    -102.604
  C     -152.291    -155.957    -103.248
  O     -152.656    -157.195    -103.827
  C     -152.260    -155.953    -101.721
  O     -151.754    -157.197    -101.209
  C     -151.278    -154.799    -101.426
  N     -151.960    -153.572    -101.034
  C     -151.985    -153.285     -99.660
  O     -151.507    -154.075     -98.849
  N     -152.584    -152.117     -99.247
  C     -153.170    -151.348    -100.114
  N     -153.738    -150.202     -99.645
  C     -153.242    -151.658    -101.553
  C     -152.623    -152.773    -101.936
  O     -147.185    -155.543    -106.669
  O     -149.457    -156.642    -106.973
  H     -150.867    -157.319    -101.598
  H     -148.913    -157.405    -106.698
  H     -153.764    -151.007    -102.237
  H     -152.617    -153.074    -102.979
  H     -150.581    -155.083    -100.628
  H     -153.251    -155.801    -101.281
  H     -152.960    -155.159    -103.598
  H     -150.194    -156.473    -103.417
  H     -153.664    -150.013     -98.653
  H     -150.953    -155.848    -105.713
  H     -154.215    -149.534    -100.236
  H     -151.185    -154.169    -105.168
  P     -154.193    -157.491    -104.176
  C     -154.373    -156.001    -106.258
  O     -154.781    -156.196    -104.915
  O     -155.023    -158.006    -103.045
  O     -154.114    -158.566    -105.361
  H     -154.892    -159.153    -105.305
  H     -155.112    -155.370    -106.760
  H     -154.300    -156.954    -106.790
  H     -153.405    -155.495    -106.273
  H     -149.418    -152.352    -108.523
  H     -148.006    -152.563    -107.515
  H     -149.596    -152.519    -106.792

 3  4  5  6  7  8  9  10  11  12  13  23  27  28  29  30  32 0
 6-311+G(2d,p)
 ****
 34  35 0
 6-311+G(2d,p)
 ****
 1  2  14  15  16  17  18  19  20  21  22  24  25  26 0
 3-21G
 ****
 31  33  36  37  38  39  40  41  42  43  44  45  46 0
 3-21G
 ****


