%nproc=1
%NoSave
%Mem=1900MB
#P OB98/GEN NMR

erre ene a

0 1
  C      277.802     156.558    -238.428
  O      276.671     155.886    -237.914
  H      277.510     157.580    -238.693
  H      278.164     156.055    -239.328
  H      278.599     156.609    -237.683
  P      276.863     154.421    -237.293
  C      275.761     153.369    -239.374
  O      276.902     153.394    -238.523
  C      276.007     152.427    -240.548
  O      276.980     153.002    -241.449
  C      276.580     151.077    -240.141
  O      275.594     150.238    -239.568
  C      277.145     150.592    -241.468
  O      276.120     150.014    -242.286
  C      277.668     151.905    -242.095
  N      279.117     152.039    -241.963
  C      279.852     151.973    -243.144
  O      279.341     151.823    -244.253
  N      281.213     152.026    -243.003
  C      281.890     151.995    -241.816
  O      283.098     151.792    -241.737
  C      281.067     152.129    -240.607
  C      279.736     152.132    -240.729
  O      275.923     154.057    -236.191
  O      278.383     154.426    -236.783
  H      278.395     154.552    -235.815
  H      276.425     150.118    -243.210
  H      281.752     151.937    -243.850
  H      281.567     152.179    -239.649
  H      279.104     152.195    -239.849
  H      277.407     151.953    -243.158
  H      277.923     149.839    -241.325
  H      277.410     151.219    -239.438
  H      275.066     152.300    -241.099
  H      275.583     154.383    -239.751
  H      274.890     153.046    -238.793
  P      276.006     149.097    -238.524
  C      276.141     147.221    -240.279
  O      276.855     147.983    -239.309
  O      274.891     148.562    -237.693
  O      277.117     149.800    -237.604
  H      276.879     149.656    -236.666
  H      276.803     146.515    -240.735
  H      275.747     147.876    -241.028
  H      275.337     146.700    -239.802

 6  7  8  9  10  11  12  13  14  15  16  27  31  32  33  34  35 0
 6-311+G(2d,p)
 ****
 36  37 0
 6-311+G(2d,p)
 ****
 1  2  3  4  5  17  18  19  20  21  22  23  24  25 0
 3-21G
 ****
 26  28  29  30  38  39  40  41  42  43  44  45 0
 3-21G
 ****


