%nproc=1
%NoSave
%Mem=1900MB
#P OB98/GEN NMR

erre ene a

0 1
  C      255.261    -127.757     200.319
  O      255.184    -129.002     200.981
  H      255.956    -127.113     200.864
  H      254.278    -127.276     200.306
  H      255.627    -127.879     199.295
  P      254.373    -130.195     200.287
  C      254.001    -131.708     202.348
  O      254.698    -131.524     201.126
  C      254.980    -131.980     203.498
  O      255.775    -130.775     203.727
  C      254.302    -132.334     204.838
  O      255.199    -133.201     205.545
  C      254.224    -130.966     205.489
  O      253.884    -131.031     206.853
  C      255.617    -130.433     205.123
  N      255.815    -129.005     205.328
  C      255.836    -128.537     206.638
  O      255.701    -129.245     207.636
  N      256.018    -127.186     206.785
  C      256.188    -126.284     205.773
  O      256.378    -125.089     205.971
  C      256.151    -126.838     204.412
  C      255.974    -128.152     204.253
  O      254.543    -130.325     198.810
  O      252.848    -129.896     200.680
  H      252.389    -129.491     199.920
  H      254.575    -131.535     207.329
  H      256.038    -126.828     207.728
  H      256.273    -126.147     203.588
  H      255.954    -128.589     203.260
  H      256.383    -130.986     205.675
  H      253.440    -130.369     205.013
  H      253.336    -132.833     204.712
  H      255.678    -132.766     203.189
  H      253.322    -132.559     202.232
  H      253.412    -130.810     202.566
  P      254.717    -134.503     206.357
  C      256.028    -133.910     208.510
  O      255.835    -134.847     207.457
  O      254.354    -135.660     205.483
  O      253.460    -134.020     207.224
  H      252.877    -134.779     207.402
  H      256.797    -134.263     209.165
  H      255.116    -133.797     209.058
  H      256.316    -132.965     208.098

 6  7  8  9  10  11  12  13  14  15  16  27  31  32  33  34  35 0
 6-311+G(2d,p)
 ****
 36  37 0
 6-311+G(2d,p)
 ****
 1  2  3  4  5  17  18  19  20  21  22  23  24  25 0
 3-21G
 ****
 26  28  29  30  38  39  40  41  42  43  44  45 0
 3-21G
 ****


