%nproc=1
%NoSave
%Mem=1900MB
#P OB98/GEN NMR

erre ene a

0 1
  C      221.304     145.315     303.917
  O      220.940     144.201     303.133
  H      221.179     145.058     304.971
  H      220.652     146.162     303.683
  H      222.346     145.596     303.746
  P      221.360     144.173     301.589
  C      223.224     142.515     302.252
  O      222.887     143.685     301.522
  C      224.608     141.994     301.852
  O      224.590     141.589     300.463
  C      225.653     143.106     301.977
  O      226.952     142.591     302.261
  C      225.655     143.725     300.589
  O      226.855     144.436     300.296
  C      225.433     142.491     299.719
  N      225.717     145.087     295.344
  C      226.517     145.174     296.467
  N      227.509     146.090     296.425
  N      226.347     144.442     297.536
  C      225.271     143.623     297.465
  C      224.389     143.465     296.420
  C      224.612     144.253     295.224
  O      223.923     144.232     294.210
  N      223.408     142.555     296.723
  C      223.691     142.167     297.948
  N      224.819     142.778     298.439
  O      221.473     145.723     301.198
  O      220.422     143.446     300.673
  H      226.842     144.654     299.345
  H      221.339     145.844     300.242
  H      225.900     145.662     294.543
  H      223.118     141.450     298.523
  H      226.383     141.977     299.521
  H      224.829     144.442     300.532
  H      227.567     146.791     295.702
  H      225.385     143.836     302.742
  H      227.909     146.370     297.326
  H      224.863     141.106     302.441
  H      222.461     141.763     302.026
  H      223.180     142.714     303.326
  P      227.478     142.701     303.771
  C      227.833     140.117     304.032
  O      227.202     141.297     304.490
  O      226.443     143.707     304.458
  O      228.887     143.185     303.882
  H      226.855     144.582     304.585
  H      227.524     139.290     304.636
  H      228.895     140.231     304.100
  H      227.558     139.938     303.014

 6  7  8  9  10  11  12  13  14  15  26  29  33  34 0
 6-311+G(2d,p)
 ****
 36  38  39  40  41 0
 6-311+G(2d,p)
 ****
 1  2  3  4  5  16  17  18  19  20  21  22  23  24  25 0
 3-21G
 ****
 27  28  30  31  32  35  37  42  43  44  45  46  47 0
 3-21G
 ****
 48  49 0
 3-21G
 ****


