%nproc=1
%NoSave
%Mem=1900MB
#P OB98/GEN NMR

erre ene a

0 1
  C      538.008      43.704     -16.032
  O      537.426      44.849     -15.406
  P      538.215      45.458     -14.145
  C      536.718      44.581     -12.222
  O      537.973      44.505     -12.879
  C      536.664      43.689     -10.979
  O      535.465      43.949     -10.201
  C      536.667      42.191     -11.303
  O      537.384      41.528     -10.253
  C      535.210      41.815     -11.208
  O      535.042      40.410     -11.008
  C      534.755      42.702     -10.041
  N      533.308      42.908     -10.002
  C      532.587      42.170      -9.058
  O      533.160      41.335      -8.354
  N      531.232      42.360      -8.961
  C      530.636      43.179      -9.770
  N      529.291      43.323      -9.628
  C      531.350      43.936     -10.819
  C      532.667      43.758     -10.869
  O      537.387      46.783     -13.792
  O      539.648      45.778     -14.436
  H      535.473      40.170     -10.158
  H      537.989      47.542     -13.706
  H      530.805      44.594     -11.488
  H      533.273      44.269     -11.603
  H      535.059      42.265      -9.084
  H      534.683      42.096     -12.136
  H      537.130      41.955     -12.265
  H      537.526      43.934     -10.347
  H      528.840      42.793      -8.889
  H      535.922      44.279     -12.912
  H      528.729      43.931     -10.201
  H      536.517      45.629     -11.961
  P      538.982      41.457     -10.344
  C      539.093      39.792     -12.299
  O      539.292      41.131     -11.882
  O      539.278      40.038      -9.654
  O      539.777      42.548      -9.709
  H      540.240      39.903      -9.579
  H      539.216      39.739     -13.379
  H      538.081      39.463     -12.042
  H      539.828      39.143     -11.826
  H      537.394      43.395     -16.852
  H      538.081      42.907     -15.321
  H      538.985      43.952     -16.391

 3  4  5  6  7  8  9  10  11  12  13  21  23  27  28  29  30  32 0
 6-311+G(2d,p)
 ****
 34  35 0
 6-311+G(2d,p)
 ****
 1  2  14  15  16  17  18  19  20  22  24  25  26 0
 3-21G
 ****
 31  33  36  37  38  39  40  41  42  43  44  45  46 0
 3-21G
 ****


