%nproc=1
%NoSave
%Mem=1900MB
#P OB98/GEN NMR

erre ene a

0 1
  C      -73.404    -293.597     198.219
  O      -73.837    -293.960     196.913
  P      -72.748    -294.590     195.916
  C      -72.265    -292.847     194.047
  O      -71.918    -293.338     195.338
  C      -73.279    -291.715     194.156
  O      -72.860    -290.772     195.164
  C      -73.460    -290.898     192.882
  O      -74.344    -291.528     191.964
  C      -74.090    -289.632     193.439
  O      -75.489    -289.845     193.688
  C      -73.339    -289.458     194.767
  N      -71.965    -284.555     194.276
  C      -73.179    -285.154     194.270
  N      -73.461    -286.472     194.391
  C      -72.330    -287.192     194.504
  C      -71.028    -286.719     194.485
  C      -70.859    -285.328     194.378
  N      -69.628    -284.718     194.415
  N      -70.131    -287.755     194.614
  C      -70.877    -288.838     194.719
  N      -72.215    -288.546     194.666
  O      -73.631    -295.061     194.666
  O      -71.938    -295.703     196.489
  H      -75.969    -289.567     192.880
  H      -73.163    -295.762     194.178
  H      -74.036    -284.493     194.154
  H      -70.499    -289.846     194.845
  H      -73.991    -289.088     195.567
  H      -74.018    -288.782     192.750
  H      -72.492    -290.662     192.423
  H      -74.237    -292.143     194.477
  H      -72.707    -293.664     193.461
  H      -69.601    -283.708     194.518
  H      -68.825    -285.274     194.695
  H      -71.361    -292.505     193.540
  P      -74.254    -291.050     190.434
  C      -76.385    -289.811     189.601
  O      -75.176    -289.750     190.336
  O      -75.087    -292.173     189.655
  O      -72.859    -290.917     189.918
  H      -74.787    -292.237     188.728
  H      -77.018    -288.976     189.886
  H      -76.924    -290.747     189.802
  H      -76.165    -289.736     188.527
  H      -74.229    -293.194     198.769
  H      -72.630    -292.862     198.147
  H      -73.028    -294.462     198.723

 3  4  5  6  7  8  9  10  11  12  22  25  29  30  31  32 0
 6-311+G(2d,p)
 ****
 33  36  37 0
 6-311+G(2d,p)
 ****
 1  2  13  14  15  16  17  18  19  20  21  23  24  26 0
 3-21G
 ****
 27  28  34  35  38  39  40  41  42  43  44  45  46  47  48 0
 3-21G
 ****


