%nproc=1
%NoSave
%Mem=1900MB
#P OB98/GEN NMR

erre ene a

0 1
  C     -366.611     534.608    -159.706
  O     -367.433     533.450    -159.520
  P     -368.151     532.866    -160.838
  C     -366.548     530.922    -161.460
  O     -367.017     532.226    -161.780
  C     -366.836     529.954    -162.610
  O     -366.034     530.241    -163.778
  C     -366.566     528.495    -162.260
  O     -367.638     527.970    -161.501
  C     -366.423     527.865    -163.639
  O     -367.712     527.525    -164.192
  C     -365.762     528.982    -164.460
  N     -362.129     526.553    -167.044
  C     -363.500     526.332    -167.008
  N     -363.965     525.330    -167.789
  N     -364.329     527.024    -166.275
  C     -363.714     527.983    -165.546
  C     -362.380     528.315    -165.511
  C     -361.475     527.541    -166.333
  O     -360.264     527.712    -166.410
  N     -362.147     529.396    -164.690
  C     -363.323     529.630    -164.129
  N     -364.327     528.846    -164.656
  O     -368.605     534.194    -161.629
  O     -369.316     531.989    -160.540
  H     -368.072     526.758    -163.703
  H     -369.574     534.281    -161.601
  H     -361.543     525.983    -167.623
  H     -363.512     530.362    -163.362
  H     -366.200     529.064    -165.460
  H     -365.853     526.926    -163.598
  H     -363.386     524.761    -168.392
  H     -365.615     528.414    -161.711
  H     -364.970     525.159    -167.797
  H     -367.887     530.083    -162.883
  H     -367.036     530.563    -160.545
  H     -365.468     530.978    -161.249
  P     -367.391     527.670    -159.950
  C     -367.886     530.007    -158.914
  O     -366.917     529.033    -159.269
  O     -366.070     526.750    -159.963
  O     -368.524     526.971    -159.260
  H     -366.185     525.998    -159.344
  H     -367.528     530.575    -158.055
  H     -368.846     529.538    -158.662
  H     -368.012     530.685    -159.755
  H     -366.191     534.902    -158.767
  H     -367.205     535.408    -160.097
  H     -365.824     534.380    -160.393

 3  4  5  6  7  8  9  10  11  12  23  26  30  31 0
 6-311+G(2d,p)
 ****
 33  35  36  37  38 0
 6-311+G(2d,p)
 ****
 1  2  13  14  15  16  17  18  19  20  21  22  24  25 0
 3-21G
 ****
 27  28  29  32  34  39  40  41  42  43  44  45  46  47  48  49 0
 3-21G
 ****


