%nproc=1
%NoSave
%Mem=1900MB
#P OB98/GEN NMR

erre ene a

0 1
  C     -480.962     243.620      62.696
  O     -482.047     242.928      62.112
  H     -480.679     243.114      63.623
  H     -481.257     244.648      62.932
  H     -480.104     243.624      62.018
  P     -482.590     243.489      60.710
  C     -485.053     243.905      61.445
  O     -484.155     243.130      60.659
  C     -486.358     243.142      61.645
  O     -487.054     243.040      60.381
  C     -486.174     241.708      62.129
  O     -485.925     241.644      63.523
  C     -487.506     241.086      61.723
  O     -488.527     241.346      62.696
  C     -487.831     241.824      60.415
  N     -489.757     238.383      57.179
  C     -490.306     239.061      58.214
  N     -489.727     239.977      59.015
  C     -488.448     240.179      58.659
  C     -487.749     239.557      57.636
  C     -488.460     238.620      56.868
  N     -487.890     237.905      55.842
  N     -486.440     239.994      57.607
  C     -486.349     240.870      58.590
  N     -487.539     241.017      59.247
  O     -481.933     242.487      59.644
  O     -482.254     244.914      60.421
  H     -488.566     242.317      62.809
  H     -481.106     242.871      59.302
  H     -491.349     238.832      58.424
  H     -485.450     241.412      58.866
  H     -488.887     242.113      60.355
  H     -487.423     240.005      61.617
  H     -485.369     241.216      61.567
  H     -486.991     243.709      62.340
  H     -485.260     244.852      60.927
  H     -484.579     244.125      62.411
  H     -488.451     237.225      55.350
  H     -486.898     237.996      55.671
  P     -484.414     241.450      64.020
  C     -484.997     239.216      65.223
  O     -484.454     240.521      65.332
  O     -484.027     242.892      64.588
  O     -483.467     240.988      62.965
  H     -483.495     243.386      63.933
  H     -484.952     238.730      66.175
  H     -484.433     238.654      64.508
  H     -486.016     239.279      64.903

 6  7  8  9  10  11  12  13  14  15  25  28  32  33  34  35 0
 6-311+G(2d,p)
 ****
 36  37  40 0
 6-311+G(2d,p)
 ****
 1  2  3  4  5  16  17  18  19  20  21  22  23  24 0
 3-21G
 ****
 26  27  29  30  31  38  39 41  42  43  44  45  46  47  48 0
 3-21G
 ****


