%nproc=1
%NoSave
%Mem=1900MB
#P OB98/GEN NMR

erre ene a

0 1
  C       82.266     156.703     -39.220
  O       83.616     157.046     -38.978
  P       84.429     156.342     -37.792
  C       84.306     156.249     -35.227
  O       83.923     156.957     -36.401
  C       83.224     156.362     -34.158
  O       82.004     155.716     -34.590
  C       83.580     155.690     -32.841
  O       84.549     156.422     -32.116
  C       82.211     155.601     -32.179
  O       81.853     156.853     -31.576
  C       81.300     155.308     -33.391
  N       80.898     153.913     -33.460
  C       79.569     153.639     -33.121
  O       78.832     154.536     -32.713
  N       79.114     152.350     -33.248
  C       79.941     151.402     -33.558
  N       79.422     150.157     -33.727
  C       81.387     151.628     -33.764
  C       81.788     152.897     -33.721
  O       85.911     156.316     -37.963
  O       83.840     154.852     -37.752
  H       84.584     154.219     -37.755
  H       80.917     156.773     -31.305
  H       82.045     150.794     -33.954
  H       82.828     153.160     -33.883
  H       80.401     155.934     -33.348
  H       82.176     154.841     -31.393
  H       83.957     154.678     -33.034
  H       83.011     157.427     -34.000
  H       78.424     150.044     -33.596
  H       85.242     156.675     -34.852
  H       79.894     149.438     -34.270
  H       84.487     155.199     -35.484
  P       85.173     155.714     -30.818
  C       83.958     155.078     -28.622
  O       84.240     156.086     -29.572
  O       86.515     156.547     -30.552
  O       85.462     154.258     -30.984
  H       87.213     155.949     -30.228
  H       83.627     155.554     -27.696
  H       84.840     154.469     -28.411
  H       83.153     154.440     -28.997
  H       81.896     157.274     -40.046
  H       81.682     156.916     -38.349
  H       82.198     155.660     -39.448

 3  4  5  6  7  8  9  10  11  12  13  24  27  28  29  30  32 0
 6-311+G(2d,p)
 ****
 34  35 0
 6-311+G(2d,p)
 ****
 1  2  14  15  16  17  18  19  20  21  22  23  25  26 0
 3-21G
 ****
 31  33  36  37  38  39  40  41  42  43  44  45  46 0
 3-21G
 ****


