%nproc=1
%NoSave
%Mem=1900MB
#P OB98/GEN NMR

erre ene a

0 1
  C       86.347    -186.270    -700.230
  O       85.684    -185.720    -699.086
  P       86.198    -184.278    -698.581
  C       88.117    -185.122    -697.033
  O       87.758    -184.408    -698.221
  C       88.839    -184.225    -696.026
  O       90.269    -184.280    -696.277
  C       88.420    -182.754    -696.062
  O       88.420    -182.235    -694.721
  C       89.571    -182.088    -696.800
  O       89.668    -180.692    -696.505
  C       90.755    -182.924    -696.297
  N       95.560    -181.328    -696.528
  C       94.687    -181.382    -695.443
  N       95.171    -180.939    -694.270
  N       93.467    -181.848    -695.524
  C       93.132    -182.297    -696.751
  C       93.905    -182.303    -697.900
  C       95.241    -181.750    -697.811
  O       96.031    -181.623    -698.752
  N       93.209    -182.836    -698.966
  C       92.033    -183.149    -698.452
  N       91.930    -182.825    -697.133
  O       85.473    -184.104    -697.168
  O       85.853    -183.162    -699.520
  H       88.929    -180.247    -696.972
  H       84.953    -183.280    -697.155
  H       96.484    -180.946    -696.417
  H       91.204    -183.579    -699.025
  H       91.034    -182.641    -695.270
  H       89.434    -182.198    -697.885
  H       96.126    -180.633    -694.120
  H       87.454    -182.553    -696.535
  H       94.578    -181.008    -693.446
  H       88.670    -184.637    -695.021
  H       88.773    -185.961    -697.307
  H       87.206    -185.534    -696.596
  P       86.980    -182.089    -694.013
  C       87.141    -179.517    -693.565
  O       86.517    -180.574    -694.285
  O       87.347    -182.119    -692.456
  O       86.001    -183.164    -694.391
  H       86.581    -182.446    -691.936
  H       88.040    -179.868    -693.020
  H       86.432    -179.123    -692.833
  H       87.429    -178.745    -694.262
  H       85.920    -187.222    -700.466
  H       87.388    -186.390    -700.015
  H       86.228    -185.609    -701.063

 3  4  5  6  7  8  9  10  11  12  23  26  30  31  33  0
 6-311+G(2d,p)
 ****
 35  36  37  38 0
 6-311+G(2d,p)
 ****
 1  2  13  14  15  16  17  18  19  20  21  22  24  25  27  28  29 0
 3-21G
 ****
 32  34  39  40  41  42  43  44  45  46  47  48  49 0
 3-21G
 ****


