%nproc=1
%NoSave
%Mem=1900MB
#P OB98/GEN NMR

erre ene a

0 1
  C     -889.067     477.404    1298.751
  O     -888.235     476.256    1298.773
  P     -887.870     475.561    1300.183
  C     -887.293     473.142    1300.867
  O     -887.896     473.978    1299.892
  C     -887.159     471.693    1300.333
  O     -888.469     471.114    1300.145
  C     -886.442     471.561    1298.997
  O     -885.037     471.702    1299.167
  C     -886.900     470.203    1298.536
  O     -886.121     469.173    1299.143
  C     -888.369     470.159    1299.075
  N     -889.339     470.412    1298.009
  C     -890.334     469.430    1297.839
  O     -890.318     468.401    1298.538
  N     -891.276     469.599    1296.850
  C     -891.211     470.624    1296.094
  N     -892.189     470.759    1295.132
  C     -890.199     471.679    1296.203
  C     -889.307     471.486    1297.177
  O     -888.680     476.005    1301.345
  O     -886.303     475.877    1300.329
  H     -886.542     468.313    1298.896
  H     -886.144     476.812    1300.577
  H     -890.185     472.546    1295.543
  H     -888.483     472.218    1297.357
  H     -888.581     469.187    1299.495
  H     -886.841     470.083    1297.442
  H     -886.812     472.334    1298.290
  H     -886.642     471.096    1301.119
  H     -892.845     470.000    1295.057
  H     -887.931     473.141    1301.754
  H     -892.223     471.518    1294.447
  H     -886.292     473.540    1301.123
  P     -884.074     471.684    1297.896
  C     -881.744     472.637    1297.295
  O     -882.871     472.702    1298.167
  O     -884.733     471.849    1296.569
  O     -883.339     470.259    1298.010
  H     -883.342     469.838    1297.105
  H     -881.167     473.550    1297.401
  H     -882.044     472.484    1296.267
  H     -881.114     471.793    1297.621
  H     -889.202     477.728    1297.740
  H     -888.609     478.187    1299.318
  H     -890.018     477.163    1299.178

 3  4  5  6  7  8  9  10  11  12  13  23  27  28  29  30  32 0
 6-311+G(2d,p)
 ****
 34  35 0
 6-311+G(2d,p)
 ****
 1  2  14  15  16  17  18  19  20  21  22  24  25  26 0
 3-21G
 ****
 31  33  36  37  38  39  40  41  42  43  44  45  46 0
 3-21G
 ****


