%nproc=1
%NoSave
%Mem=1900MB
#P OB98/GEN NMR

erre ene a

0 1
  C      737.131    -897.600     249.028
  O      736.325    -898.090     250.073
  H      736.533    -896.920     248.415
  H      737.468    -898.430     248.392
  H      737.993    -897.050     249.410
  P      737.036    -898.730     251.354
  C      736.070    -896.860     252.860
  O      737.240    -897.570     252.452
  C      736.326    -895.350     252.938
  O      736.661    -894.850     251.635
  C      735.093    -894.580     253.414
  O      734.966    -894.470     254.825
  C      735.326    -893.200     252.766
  O      736.097    -892.350     253.629
  C      736.081    -893.540     251.488
  N      732.392    -891.140     248.906
  C      732.811    -890.920     250.217
  N      732.131    -890.000     250.912
  N      733.783    -891.600     250.781
  C      734.294    -892.570     249.969
  C      733.953    -892.860     248.669
  C      732.922    -892.070     248.033
  O      732.533    -892.190     246.883
  N      734.684    -893.940     248.185
  C      735.379    -894.330     249.227
  N      735.257    -893.480     250.294
  O      738.544    -899.000     250.852
  O      736.419    -900.000     251.877
  H      735.626    -892.290     254.483
  H      738.904    -899.770     251.313
  H      731.639    -890.550     248.530
  H      736.040    -895.200     249.239
  H      736.921    -892.830     251.336
  H      734.365    -892.700     252.600
  H      731.302    -889.520     250.577
  H      734.172    -895.000     252.973
  H      732.262    -889.960     251.927
  H      737.178    -895.150     253.595
  H      735.812    -897.250     253.852
  H      735.236    -897.080     252.180
  P      733.524    -894.480     255.530
  C      734.079    -895.310     257.962
  O      733.548    -895.570     256.674
  O      732.584    -895.130     254.387
  O      733.022    -893.150     255.977
  H      732.111    -894.450     253.924
  H      733.990    -896.187     258.568
  H      733.537    -894.507     258.416
  H      735.111    -895.040     257.875

 6  7  8  9  10  11  12  13  14  15  26  29  33  34 0
 6-311+G(2d,p)
 ****
 36  38  39  40  41 0
 6-311+G(2d,p)
 ****
 1  2  3  4  5  16  17  18  19  20  21  22  23  24  25 0
 3-21G
 ****
 27  28  30  31  32  35  37  42  43  44  45  46  47 0
 3-21G
 ****
 48  49 0
 3-21G
 ****


