%nproc=1
%NoSave
%Mem=1900MB
#P OB98/GEN NMR

erre ene a

0 1
  C     -144.572     129.850      92.192
  O     -145.502     130.808      92.659
  H     -145.098     129.122      91.572
  H     -144.119     129.330      93.040
  H     -143.795     130.333      91.592
  P     -144.916     132.028      93.520
  C     -144.163     132.312      95.986
  O     -144.896     131.533      95.050
  C     -144.483     131.879      97.416
  O     -145.887     132.167      97.693
  C     -144.259     130.383      97.690
  O     -143.795     130.244      99.038
  C     -145.665     129.810      97.611
  O     -145.787     128.565      98.296
  C     -146.460     130.959      98.231
  N     -150.657     128.406      99.327
  C     -149.377     128.295      99.840
  N     -149.184     127.357     100.792
  N     -148.376     129.035      99.452
  C     -148.719     129.955      98.517
  C     -149.942     130.163      97.926
  C     -151.040     129.315      98.345
  O     -152.189     129.355      97.914
  N     -149.876     131.174      96.998
  C     -148.618     131.576      97.031
  N     -147.877     130.866      97.937
  O     -146.114     133.090      93.482
  O     -143.637     132.611      93.019
  H     -145.112     127.954      97.933
  H     -145.985     133.720      92.748
  H     -151.390     127.801      99.651
  H     -148.194     132.365      96.424
  H     -146.365     130.990      99.324
  H     -145.952     129.653      96.563
  H     -149.919     126.782     101.174
  H     -143.555     129.898      97.004
  H     -148.265     127.289     101.213
  H     -143.894     132.494      98.107
  H     -144.434     133.366      95.861
  H     -143.091     132.195      95.792
  P     -142.260     130.585      99.346
  C     -139.959     129.499      98.803
  O     -141.345     129.568      98.508
  O     -142.075     130.065     100.850
  O     -141.913     132.031      99.213
  H     -141.373     130.577     101.294
  H     -139.493     128.780      98.162
  H     -139.826     129.207      99.824
  H     -139.513     130.459      98.646

 6  7  8  9  10  11  12  13  14  15  26  29  33  34 0
 6-311+G(2d,p)
 ****
 36  38  39  40  41 0
 6-311+G(2d,p)
 ****
 1  2  3  4  5  16  17  18  19  20  21  22  23  24  25 0
 3-21G
 ****
 27  28  30  31  32  35  37  42  43  44  45  46  47 0
 3-21G
 ****
 48  49 0
 3-21G
 ****


