%nproc=1
%NoSave
%Mem=1900MB
#P OB98/GEN NMR

erre ene a

0 1
  C       28.269      71.202     -56.335
  O       29.062      71.926     -55.409
  P       30.439      71.329     -54.835
  C       29.334      70.383     -52.697
  O       30.260      71.307     -53.242
  C       29.069      70.703     -51.224
  O       27.988      69.856     -50.753
  C       30.273      70.475     -50.301
  O       30.221      71.476     -49.279
  C       29.998      69.101     -49.720
  O       30.685      68.877     -48.498
  C       28.471      69.142     -49.597
  N       27.881      67.810     -49.519
  C       26.906      67.587     -48.545
  O       26.576      68.479     -47.764
  N       26.320      66.348     -48.474
  C       26.732      65.392     -49.247
  N       26.078      64.200     -49.179
  C       27.833      65.555     -50.215
  C       28.337      66.781     -50.311
  O       31.668      72.021     -55.314
  O       30.378      69.776     -55.198
  H       31.641      69.002     -48.656
  H       30.701      69.581     -56.113
  H       28.159      64.719     -50.818
  H       29.131      67.000     -51.011
  H       28.177      69.728     -48.719
  H       30.317      68.333     -50.432
  H       31.230      70.546     -50.828
  H       28.725      71.742     -51.153
  H       25.223      64.181     -48.633
  H       29.764      69.380     -52.767
  H       26.116      63.540     -49.947
  H       28.406      70.404     -53.277
  P       31.525      72.379     -49.030
  C       32.355      70.635     -47.298
  O       32.130      71.996     -47.598
  O       30.871      73.818     -48.741
  O       32.490      72.480     -50.166
  H       31.518      74.512     -48.970
  H       32.773      70.563     -46.290
  H       33.071      70.201     -48.002
  H       31.417      70.075     -47.329
  H       27.401      71.776     -56.587
  H       27.968      70.273     -55.897
  H       28.839      71.011     -57.220

 3  4  5  6  7  8  9  10  11  12  13  23  27  28  29  30  32 0
 6-311+G(2d,p)
 ****
 34  35 0
 6-311+G(2d,p)
 ****
 1  2  14  15  16  17  18  19  20  21  22  24  25  26 0
 3-21G
 ****
 31  33  36  37  38  39  40  41  42  43  44  45  46 0
 3-21G
 ****


