%nproc=1
%NoSave
%Mem=1900MB
#P OB98/GEN NMR

erre ene a

0 1
  C     -523.827    -100.424     156.260
  O     -523.937    -101.833     156.471
  P     -522.705    -102.738     155.966
  C     -523.010    -104.442     157.910
  O     -522.145    -103.540     157.238
  C     -523.173    -104.043     159.375
  O     -523.856    -102.787     159.500
  C     -523.992    -105.028     160.199
  O     -523.228    -106.155     160.594
  C     -524.346    -104.174     161.411
  O     -523.254    -104.172     162.346
  C     -524.524    -102.777     160.787
  N     -528.623    -100.625     162.854
  C     -527.363    -100.821     163.386
  N     -527.161    -100.351     164.637
  N     -526.390    -101.417     162.750
  C     -526.733    -101.811     161.497
  C     -527.943    -101.671     160.859
  C     -529.019    -101.034     161.586
  O     -530.161    -100.868     161.176
  N     -527.899    -102.184     159.588
  C     -526.657    -102.602     159.446
  N     -525.910    -102.413     160.581
  O     -521.561    -101.651     155.680
  O     -523.011    -103.556     154.758
  H     -522.504    -103.721     161.910
  H     -520.946    -101.986     155.000
  H     -529.333    -100.163     163.389
  H     -526.252    -103.042     158.543
  H     -524.051    -101.997     161.396
  H     -525.233    -104.542     161.949
  H     -527.836     -99.820     165.157
  H     -524.910    -105.319     159.670
  H     -526.228    -100.454     165.026
  H     -522.167    -103.944     159.815
  H     -522.613    -105.456     157.847
  H     -523.982    -104.450     157.397
  P     -523.047    -107.331     159.514
  C     -520.506    -106.799     159.419
  O     -521.712    -106.965     158.703
  O     -524.226    -107.055     158.473
  O     -523.110    -108.708     160.083
  H     -524.509    -107.886     158.054
  H     -520.387    -107.573     160.181
  H     -520.497    -105.810     159.892
  H     -519.670    -106.865     158.720
  H     -524.703     -99.938     156.636
  H     -523.732    -100.227     155.213
  H     -522.964    -100.053     156.773

 3  4  5  6  7  8  9  10  11  12  23  26  30  31  33  0
 6-311+G(2d,p)
 ****
 35  36  37  38 0
 6-311+G(2d,p)
 ****
 1  2  13  14  15  16  17  18  19  20  21  22  24  25  27  28  29 0
 3-21G
 ****
 32  34  39  40  41  42  43  44  45  46  47  48  49 0
 3-21G
 ****


