%nproc=1
%NoSave
%Mem=1900MB
#P OB98/GEN NMR

erre ene a

0 1
  C      249.745     477.447     239.270
  O      248.534     476.697     239.257
  P      248.069     476.002     240.629
  C      246.307     474.488     239.383
  O      247.452     474.578     240.205
  C      245.829     473.035     239.287
  O      246.830     472.240     238.608
  C      245.614     472.355     240.636
  O      244.394     472.762     241.237
  C      245.662     470.877     240.241
  O      244.403     470.467     239.673
  C      246.759     470.896     239.142
  N      248.065     470.428     239.613
  C      248.547     469.263     239.037
  O      247.938     468.637     238.169
  N      249.753     468.830     239.509
  C      250.479     469.394     240.520
  O      251.540     468.933     240.935
  C      249.902     470.610     241.115
  C      248.743     471.060     240.635
  O      246.798     476.901     241.000
  O      249.144     475.966     241.667
  H      246.384     477.286     240.208
  H      244.512     469.536     239.397
  H      250.139     467.995     239.088
  H      250.444     471.077     241.923
  H      248.282     471.949     241.068
  H      246.445     470.253     238.298
  H      245.879     470.219     241.078
  H      246.450     472.583     241.311
  H      244.911     473.018     238.691
  H      246.565     474.856     238.378
  H      245.521     475.121     239.788
  P      244.451     473.107     242.810
  C      241.979     472.287     243.123
  O      243.344     472.182     243.511
  O      243.824     474.588     242.840
  O      245.832     472.999     243.393
  H      243.056     474.661     242.257
  H      241.452     471.379     243.423
  H      241.890     472.408     242.036
  H      241.523     473.145     243.620
  H      249.927     477.848     238.295
  H      250.557     476.809     239.550
  H      249.661     478.247     239.975

 3  4  5  6  7  8  9  10  11  12  13  24  28  29  30  31  32 0
 6-311+G(2d,p)
 ****
 33  34 0
 6-311+G(2d,p)
 ****
 1  2  14  15  16  17  18  19  20  21  22  23  25  26  27 0
 3-21G
 ****
 35  36  37  38  39  40  41  42  43  44  45 0
 3-21G
 ****


