%nproc=1
%NoSave
%Mem=1900MB
#P OB98/GEN NMR

erre ene a

0 1
  C        7.179    -399.145     -67.598
  O        7.092    -400.490     -68.012
  P        5.672    -401.141     -68.370
  C        5.544    -399.968     -70.656
  O        4.948    -400.117     -69.373
  C        4.525    -400.284     -71.748
  O        4.195    -401.698     -71.760
  C        3.184    -399.590     -71.567
  O        3.159    -398.185     -71.681
  C        2.308    -400.380     -72.525
  O        2.474    -399.932     -73.870
  C        2.880    -401.811     -72.357
  N        1.995    -402.662     -71.564
  C        0.892    -403.180     -72.230
  O        0.645    -402.958     -73.414
  N        0.048    -403.951     -71.477
  C        0.173    -404.209     -70.143
  O       -0.647    -404.871     -69.520
  C        1.350    -403.619     -69.490
  C        2.197    -402.883     -70.215
  O        4.846    -401.548     -67.196
  O        6.059    -402.352     -69.343
  H        1.918    -400.497     -74.439
  H        6.525    -402.087     -70.157
  H       -0.766    -404.327     -71.938
  H        1.484    -403.814     -68.433
  H        3.070    -402.437     -69.756
  H        3.020    -402.283     -73.338
  H        1.246    -400.282     -72.281
  H        2.823    -399.808     -70.553
  H        4.976    -400.051     -72.716
  H        6.385    -400.663     -70.741
  H        5.937    -398.951     -70.761
  P        1.851    -397.299     -71.421
  C        2.791    -396.290     -69.226
  O        1.747    -397.007     -69.848
  O        0.603    -397.721     -72.124
  O        2.312    -395.870     -71.990
  H        1.533    -395.404     -72.344
  H        2.579    -396.223     -68.155
  H        2.853    -395.277     -69.633
  H        3.744    -396.806     -69.359
  H        8.202    -398.896     -67.406
  H        6.605    -399.009     -66.705
  H        6.796    -398.509     -68.369

 3  4  5  6  7  8  9  10  11  12  13  23  28  29  30  31  32 0
 6-311+G(2d,p)
 ****
 33  34 0
 6-311+G(2d,p)
 ****
 1  2  14  15  16  17  18  19  20  21  22  24  25  26  27 0
 3-21G
 ****
 35  36  37  38  39  40  41  42  43  44  45 0
 3-21G
 ****


