%nproc=1
%NoSave
%Mem=1900MB
#P OB98/GEN NMR

erre ene a

0 1
  C     -308.252     398.411     211.874
  O     -308.580     399.802     211.948
  P     -309.357     400.577     210.776
  C     -310.513     402.282     212.333
  O     -309.630     402.090     211.234
  C     -309.989     403.339     213.309
  O     -308.846     402.839     214.035
  C     -309.515     404.633     212.651
  O     -310.612     405.437     212.254
  C     -308.655     405.227     213.763
  O     -309.460     405.918     214.729
  C     -308.016     403.969     214.381
  N     -306.642     403.764     213.949
  C     -305.716     403.441     214.948
  O     -306.062     403.407     216.131
  N     -304.411     403.203     214.587
  C     -304.051     403.344     213.348
  N     -302.751     403.085     213.051
  C     -304.979     403.761     212.278
  C     -306.243     403.950     212.648
  O     -310.573     399.865     210.279
  O     -308.277     400.735     209.601
  H     -308.864     406.160     215.464
  H     -308.744     400.728     208.742
  H     -304.628     403.896     211.266
  H     -306.988     404.254     211.925
  H     -308.036     404.029     215.480
  H     -307.919     405.941     213.385
  H     -308.877     404.394     211.787
  H     -310.783     403.552     214.032
  H     -302.142     402.794     213.802
  H     -310.615     401.323     212.863
  H     -302.363     403.159     212.115
  H     -311.498     402.572     211.950
  P     -310.964     405.575     210.696
  C     -313.383     406.230     211.275
  O     -312.200     406.587     210.577
  O     -311.120     404.296     209.947
  O     -309.751     406.440     210.109
  H     -309.593     406.171     209.180
  H     -313.975     407.135     211.450
  H     -313.146     405.760     212.233
  H     -313.970     405.536     210.669
  H     -307.738     398.118     212.766
  H     -307.622     398.238     211.026
  H     -309.150     397.838     211.775

 3  4  5  6  7  8  9  10  11  12  13  23  27  28  29  30  32 0
 6-311+G(2d,p)
 ****
 34  35 0
 6-311+G(2d,p)
 ****
 1  2  14  15  16  17  18  19  20  21  22  24  25  26 0
 3-21G
 ****
 31  33  36  37  38  39  40  41  42  43  44  45  46 0
 3-21G
 ****


