%nproc=1
%NoSave
%Mem=1900MB
#P OB98/GEN NMR

erre ene a

0 1
  C       63.023     -32.284      39.252
  O       63.514     -32.722      40.508
  P       65.010     -33.282      40.651
  C       63.950     -35.571      40.153
  O       65.042     -34.698      39.893
  C       64.114     -36.882      39.388
  O       64.445     -36.581      38.011
  C       65.223     -37.772      39.941
  O       64.824     -39.140      39.817
  C       66.398     -37.532      39.008
  O       67.288     -38.661      38.988
  C       65.680     -37.248      37.686
  N       69.878     -36.865      34.753
  C       69.382     -37.888      35.482
  N       68.277     -37.913      36.258
  C       67.628     -36.739      36.191
  C       68.009     -35.606      35.486
  C       69.197     -35.695      34.741
  N       69.694     -34.653      33.988
  N       67.104     -34.580      35.686
  C       66.188     -35.093      36.476
  N       66.453     -36.397      36.801
  O       65.542     -33.311      42.042
  O       65.884     -32.342      39.699
  H       67.702     -38.717      39.874
  H       66.754     -32.163      40.105
  H       69.954     -38.813      35.441
  H       65.324     -34.564      36.850
  H       65.437     -38.175      37.152
  H       66.968     -36.661      39.352
  H       65.469     -37.548      40.984
  H       63.154     -37.412      39.389
  H       63.029     -35.077      39.826
  H       70.483     -34.848      33.391
  H       69.101     -33.848      33.840
  H       63.879     -35.756      41.230
  P       65.023     -40.053      41.130
  C       67.170     -41.159      40.158
  O       66.592     -40.368      41.172
  O       64.090     -41.219      41.146
  O       64.775     -38.981      42.293
  H       64.966     -38.066      41.988
  H       68.232     -41.293      40.381
  H       67.081     -40.658      39.191
  H       66.690     -42.141      40.117
  H       62.013     -31.949      39.361
  H       63.057     -33.094      38.554
  H       63.629     -31.478      38.893

 3  4  5  6  7  8  9  10  11  12  22  25  29  30  31  32 0
 6-311+G(2d,p)
 ****
 33  36  37 0
 6-311+G(2d,p)
 ****
 1  2  13  14  15  16  17  18  19  20  21  23  24  26 0
 3-21G
 ****
 27  28  34  35  38  39  40  41  42  43  44  45  46  47  48 0
 3-21G
 ****


