%nproc=1
%NoSave
%Mem=1900MB
#P OB98/GEN NMR

erre ene a

0 1
  C       17.621     -35.138    -356.443
  O       16.518     -35.949    -356.860
  P       15.032     -35.398    -356.614
  C       13.810     -37.667    -356.400
  O       13.981     -36.487    -357.185
  C       13.005     -38.718    -357.189
  O       13.815     -39.155    -358.328
  C       12.674     -40.000    -356.411
  O       11.456     -40.038    -355.664
  C       12.517     -41.008    -357.542
  O       11.197     -40.923    -358.093
  C       13.538     -40.547    -358.578
  N       16.124     -44.471    -360.643
  C       14.912     -43.940    -360.918
  N       14.296     -42.895    -360.315
  C       15.071     -42.374    -359.359
  C       16.335     -42.792    -358.977
  C       16.868     -43.899    -359.657
  N       18.107     -44.433    -359.381
  N       16.826     -42.004    -357.941
  C       15.855     -41.150    -357.698
  N       14.789     -41.306    -358.535
  O       14.779     -33.991    -357.035
  O       14.862     -35.564    -355.028
  H       10.969     -39.969    -358.131
  H       14.341     -34.807    -354.689
  H       14.356     -44.429    -361.714
  H       15.892     -40.382    -356.923
  H       13.166     -40.625    -359.609
  H       12.648     -42.046    -357.199
  H       13.513     -40.291    -355.759
  H       12.093     -38.267    -357.578
  H       13.264     -37.412    -355.481
  H       18.399     -45.251    -359.894
  H       18.647     -44.064    -358.616
  H       14.797     -38.020    -356.101
  P       11.451     -40.333    -354.090
  C        9.806     -42.345    -354.334
  O       10.060     -41.082    -353.789
  O       11.727     -39.156    -353.218
  O       12.523     -41.517    -353.956
  H       12.242     -42.361    -354.360
  H        8.916     -42.772    -353.853
  H       10.645     -43.030    -354.150
  H        9.610     -42.258    -355.410
  H       18.539     -35.638    -356.673
  H       17.561     -34.970    -355.388
  H       17.588     -34.200    -356.956

 3  4  5  6  7  8  9  10  11  12  22  25  29  30  31  32 0
 6-311+G(2d,p)
 ****
 33  36  37 0
 6-311+G(2d,p)
 ****
 1  2  13  14  15  16  17  18  19  20  21  23  24  26 0
 3-21G
 ****
 27  28  34  35  38  39  40  41  42  43  44  45  46  47  48 0
 3-21G
 ****


