%nproc=1
%NoSave
%Mem=1900MB
#P OB98/GEN NMR

erre ene a

0 1
  C     -319.237    -333.072     240.107
  O     -320.644    -333.228     240.336
  P     -321.353    -332.869     241.728
  C     -323.581    -331.721     241.108
  O     -322.949    -332.919     241.541
  C     -323.647    -331.633     239.579
  O     -324.217    -332.861     239.030
  C     -324.489    -330.457     239.046
  O     -323.806    -329.957     237.889
  C     -325.791    -331.149     238.670
  O     -326.598    -330.403     237.779
  C     -325.240    -332.453     238.091
  N     -326.214    -333.519     237.902
  C     -327.189    -333.336     236.908
  O     -327.258    -332.298     236.257
  N     -328.092    -334.349     236.688
  C     -328.041    -335.441     237.389
  N     -328.959    -336.402     237.105
  C     -327.050    -335.661     238.452
  C     -326.176    -334.673     238.648
  O     -320.871    -331.591     242.337
  O     -321.044    -334.106     242.699
  H     -320.924    -333.776     243.610
  H     -327.390    -330.934     237.574
  H     -327.032    -336.587     239.006
  H     -325.391    -334.774     239.398
  H     -324.734    -332.244     237.141
  H     -326.373    -331.318     239.583
  H     -324.608    -329.641     239.766
  H     -322.621    -331.569     239.199
  H     -329.617    -336.214     236.361
  H     -323.004    -330.871     241.483
  H     -329.002    -337.292     237.583
  H     -324.586    -331.670     241.536
  P     -323.331    -328.427     237.852
  C     -321.356    -328.673     236.173
  O     -322.651    -328.165     236.424
  O     -322.057    -328.453     238.823
  O     -324.321    -327.413     238.325
  H     -321.921    -327.562     239.200
  H     -321.346    -329.130     235.176
  H     -321.055    -329.432     236.900
  H     -320.637    -327.853     236.196
  H     -319.002    -333.375     239.108
  H     -318.693    -333.678     240.801
  H     -318.965    -332.046     240.241

 3  4  5  6  7  8  9  10  11  12  13  24  27  28  29  30  32 0
 6-311+G(2d,p)
 ****
 34  35 0
 6-311+G(2d,p)
 ****
 1  2  14  15  16  17  18  19  20  21  22  23  25  26 0
 3-21G
 ****
 31  33  36  37  38  39  40  41  42  43  44  45  46 0
 3-21G
 ****


