%nproc=1
%NoSave
%Mem=1900MB
#P OB98/GEN NMR

erre ene a

0 1
  C     -227.499     840.589    -461.857
  O     -228.599     841.001    -461.065
  H     -227.065     841.470    -462.341
  H     -227.817     839.890    -462.636
  H     -226.737     840.120    -461.230
  P     -229.499     839.868    -460.375
  C     -228.506     840.625    -458.109
  O     -228.782     839.535    -458.985
  C     -228.378     840.128    -456.673
  O     -229.684     839.894    -456.112
  C     -227.636     838.802    -456.563
  O     -226.243     838.990    -456.716
  C     -228.088     838.336    -455.194
  O     -227.352     838.987    -454.150
  C     -229.567     838.784    -455.188
  N     -230.485     837.707    -455.546
  C     -231.814     837.874    -455.135
  O     -232.155     838.882    -454.522
  N     -232.714     836.880    -455.421
  C     -232.336     835.822    -456.070
  N     -233.276     834.874    -456.317
  C     -230.948     835.615    -456.528
  C     -230.086     836.586    -456.234
  O     -229.827     838.667    -461.208
  O     -230.816     840.661    -459.924
  H     -227.646     838.572    -453.316
  H     -231.483     840.650    -460.635
  H     -230.678     834.719    -457.068
  H     -229.046     836.510    -456.536
  H     -229.853     839.164    -454.197
  H     -227.956     837.262    -455.073
  H     -228.014     838.094    -457.305
  H     -227.891     840.907    -456.078
  H     -234.213     835.057    -455.975
  H     -229.343     841.325    -458.195
  H     -233.116     834.058    -456.885
  H     -227.588     841.143    -458.413
  P     -225.305     837.780    -457.185
  C     -225.949     838.184    -459.649
  O     -225.934     837.259    -458.564
  O     -225.055     836.731    -456.155
  O     -223.967     838.526    -457.668
  H     -223.440     838.851    -456.895
  H     -226.390     837.721    -460.507
  H     -224.947     838.480    -459.879
  H     -226.521     839.046    -459.375

 6  7  8  9  10  11  12  13  14  15  16  26  30  31  32  33  35 0
 6-311+G(2d,p)
 ****
 37  38 0
 6-311+G(2d,p)
 ****
 1  2  3  4  5  17  18  19  20  21  22  23  24  25 0
 3-21G
 ****
 27  28  29  34  36  39  40  41  42  43  44  45  46 0
 3-21G
 ****


