%nproc=1
%NoSave
%Mem=1900MB
#P OB98/GEN NMR

erre ene a

0 1
  C      146.744     417.962     331.189
  O      146.401     418.332     332.510
  H      146.674     416.880     331.097
  H      147.771     418.272     330.963
  H      146.053     418.428     330.481
  P      146.494     419.890     332.874
  C      149.053     420.094     332.592
  O      147.772     420.413     332.051
  C      150.101     421.095     332.109
  O      149.826     422.384     332.721
  C      151.537     420.706     332.482
  O      152.421     421.112     331.432
  C      151.816     421.554     333.709
  O      153.213     421.758     333.923
  C      151.027     422.822     333.388
  N      152.984     425.905     336.930
  C      153.474     425.452     335.754
  N      152.871     424.644     334.857
  C      151.613     424.357     335.246
  C      150.974     424.751     336.406
  C      151.726     425.559     337.284
  N      151.248     426.003     338.495
  N      149.706     424.215     336.469
  C      149.571     423.523     335.353
  N      150.704     423.568     334.592
  O      146.497     420.220     334.329
  O      145.272     420.500     332.035
  H      153.602     422.146     333.113
  H      145.260     420.156     331.124
  H      154.482     425.767     335.507
  H      148.689     422.964     335.053
  H      151.571     423.499     332.720
  H      151.411     421.062     334.602
  H      151.661     419.640     332.676
  H      149.993     421.230     331.024
  H      149.347     419.080     332.290
  H      151.854     426.579     339.064
  H      150.313     425.763     338.783
  H      148.971     420.126     333.688
  P      153.002     419.989     330.439
  C      154.611     418.584     331.883
  O      153.322     418.664     331.286
  O      154.104     420.434     329.536
  O      151.708     419.553     329.595
  H      151.963     419.449     328.653
  H      154.701     417.661     332.416
  H      154.741     419.401     332.561
  H      155.361     418.630     331.121

 6  7  8  9  10  11  12  13  14  15  25  28  32  33  34  35 0
 6-311+G(2d,p)
 ****
 36  39  40 0
 6-311+G(2d,p)
 ****
 1  2  3  4  5  16  17  18  19  20  21  22  23  24 0
 3-21G
 ****
 26  27  29  30  31  37  38  41  42  43  44  45  46  47 0
 3-21G
 ****
 48 0
 3-21G
 ****


