%nproc=1
%NoSave
%Mem=1900MB
#P OB98/GEN NMR

erre ene a

0 1
  C       33.525     105.518      41.617
  O       34.607     104.944      40.912
  H       33.503     106.592      41.412
  H       33.649     105.367      42.693
  H       32.583     105.074      41.285
  P       34.881     103.382      41.172
  C       37.191     104.148      42.111
  O       36.011     103.384      42.315
  C       37.636     104.780      43.425
  O       36.498     105.289      44.158
  C       38.335     103.820      44.385
  O       39.682     103.556      44.034
  C       38.233     104.619      45.672
  O       39.183     105.700      45.647
  C       36.784     105.145      45.576
  N       35.808     104.254      46.210
  C       35.803     104.222      47.609
  O       36.588     104.912      48.256
  N       34.928     103.376      48.247
  C       34.114     102.643      47.554
  N       33.273     101.825      48.241
  C       34.075     102.654      46.081
  C       34.938     103.472      45.481
  O       35.697     102.928      39.873
  O       33.682     102.547      41.474
  H       38.784     106.432      46.153
  H       36.046     102.011      39.997
  H       33.387     102.015      45.545
  H       34.968     103.535      44.399
  H       36.696     106.139      46.031
  H       38.445     104.031      46.564
  H       37.772     102.888      44.502
  H       38.278     105.636      43.183
  H       33.364     101.795      49.249
  H       36.972     104.928      41.373
  H       32.712     101.111      47.794
  H       37.991     103.508      41.727
  P       40.039     102.064      43.559
  C       41.917     101.786      45.341
  O       40.680     101.314      44.821
  O       41.287     102.282      42.585
  O       38.920     101.335      42.882
  H       41.278     101.632      41.855
  H       42.207     101.182      46.176
  H       41.806     102.802      45.657
  H       42.668     101.729      44.581

 6  7  8  9  10  11  12  13  14  15  16  26  30  31  32  33  35 0
 6-311+G(2d,p)
 ****
 37  38 0
 6-311+G(2d,p)
 ****
 1  2  3  4  5  17  18  19  20  21  22  23  24  25 0
 3-21G
 ****
 27  28  29  34  36  39  40  41  42  43  44  45  46 0
 3-21G
 ****


