%nproc=1
%NoSave
%Mem=1900MB
#P OB98/GEN NMR

erre ene a

0 1
  C      348.772    -208.002     383.934
  O      349.093    -209.297     383.460
  H      348.888    -207.992     385.023
  H      347.733    -207.756     383.694
  H      349.439    -207.253     383.507
  P      349.152    -209.544     381.878
  C      347.441    -209.750     379.955
  O      347.645    -209.485     381.336
  C      346.327    -210.786     379.783
  O      345.079    -210.268     380.285
  C      346.077    -211.183     378.336
  O      347.073    -212.066     377.858
  C      344.687    -211.790     378.447
  O      344.754    -213.145     378.924
  C      344.018    -210.869     379.499
  N      343.164    -209.848     378.896
  C      341.941    -210.284     378.399
  O      341.583    -211.467     378.415
  N      341.136    -209.317     377.847
  C      341.483    -208.014     377.645
  O      340.765    -207.206     377.065
  C      342.795    -207.611     378.168
  C      343.565    -208.533     378.758
  O      349.932    -210.737     381.438
  O      349.789    -208.186     381.310
  H      345.309    -213.631     378.284
  H      350.717    -208.347     381.059
  H      340.260    -209.618     377.470
  H      343.105    -206.585     378.040
  H      344.542    -208.255     379.151
  H      343.409    -211.460     380.195
  H      344.164    -211.815     377.490
  H      346.012    -210.287     377.707
  H      346.595    -211.670     380.386
  H      348.374    -210.144     379.534
  H      347.179    -208.813     379.443
  P      347.905    -211.692     376.549
  C      347.492    -211.554     374.014
  O      346.906    -211.744     375.295
  O      349.192    -212.438     376.364
  O      348.187    -210.118     376.714
  H      349.157    -209.960     376.737
  H      346.732    -211.610     373.262
  H      348.223    -212.316     373.839
  H      347.962    -210.594     373.976

 6  7  8  9  10  11  12  13  14  15  16  26  31  32  33  34  35 0
 6-311+G(2d,p)
 ****
 36  37 0
 6-311+G(2d,p)
 ****
 1  2  3  4  5  17  18  19  20  21  22  23  24  25 0
 3-21G
 ****
 27  28  29  30  38  39  40  41  42  43  44  45 0
 3-21G
 ****


