%nproc=1
%NoSave
%Mem=1900MB
#P OB98/GEN NMR

erre ene a

0 1
  C     -111.036     -37.158     199.871
  O     -109.752     -37.533     199.424
  H     -111.784     -37.725     199.311
  H     -111.199     -36.092     199.688
  H     -111.152     -37.375     200.937
  P     -108.490     -36.940     200.219
  C     -108.333     -35.122     198.371
  O     -108.339     -35.407     199.762
  C     -107.862     -33.688     198.122
  O     -107.203     -33.198     199.320
  C     -106.881     -33.556     196.957
  O     -107.164     -32.342     196.255
  C     -105.527     -33.443     197.637
  O     -104.562     -32.765     196.834
  C     -105.896     -32.726     198.942
  N     -104.907     -32.973     199.987
  C     -104.389     -31.850     200.639
  O     -104.762     -30.721     200.320
  N     -103.421     -32.028     201.595
  C     -102.947     -33.214     201.819
  N     -101.968     -33.319     202.757
  C     -103.417     -34.416     201.105
  C     -104.391     -34.228     200.218
  O     -107.242     -37.653     199.518
  O     -108.510     -37.146     201.696
  H     -104.793     -31.811     196.815
  H     -106.514     -37.794     200.153
  H     -102.973     -35.383     201.307
  H     -104.795     -35.050     199.640
  H     -105.970     -31.641     198.778
  H     -105.141     -34.446     197.852
  H     -106.921     -34.396     196.260
  H     -108.746     -33.057     197.964
  H     -101.660     -32.467     203.210
  H     -109.347     -35.236     197.979
  H     -101.496     -34.183     202.978
  H     -107.675     -35.833     197.858
  P     -108.373     -32.383     195.202
  C     -106.842     -33.042     193.210
  O     -107.966     -33.378     194.013
  O     -108.320     -30.935     194.524
  O     -109.700     -32.652     195.828
  H     -109.077     -30.397     194.826
  H     -106.697     -33.796     192.465
  H     -105.970     -32.978     193.826
  H     -107.013     -32.099     192.734

 6  7  8  9  10  11  12  13  14  15  16  26  30  31  32  33  35 0
 6-311+G(2d,p)
 ****
 37  38 0
 6-311+G(2d,p)
 ****
 1  2  3  4  5  17  18  19  20  21  22  23  24  25 0
 3-21G
 ****
 27  28  29  34  36  39  40  41  42  43  44  45  46 0
 3-21G
 ****


