%nproc=1
%NoSave
%Mem=1900MB
#P OB98/GEN NMR

erre ene a

0 1
  C     -120.761    -795.854     168.683
  O     -121.824    -795.009     169.137
  P     -123.318    -795.591     169.038
  C     -123.533    -795.773     171.625
  O     -123.612    -796.430     170.370
  C     -123.900    -796.729     172.759
  O     -123.093    -797.923     172.747
  C     -123.699    -796.133     174.142
  O     -124.730    -795.204     174.449
  C     -123.709    -797.387     175.000
  O     -125.070    -797.836     175.225
  C     -122.980    -798.404     174.109
  N     -119.710    -799.686     177.824
  C     -121.071    -799.637     177.798
  N     -121.850    -799.271     176.769
  C     -121.125    -798.972     175.685
  C     -119.746    -798.971     175.573
  C     -119.026    -799.354     176.706
  N     -117.645    -799.391     176.753
  N     -119.353    -798.578     174.293
  C     -120.470    -798.324     173.657
  N     -121.565    -798.549     174.450
  O     -123.189    -796.707     167.895
  O     -124.344    -794.552     168.691
  H     -125.500    -797.151     175.794
  H     -123.635    -796.414     167.087
  H     -121.569    -799.923     178.718
  H     -120.546    -797.959     172.643
  H     -123.438    -799.396     174.146
  H     -123.255    -797.231     175.981
  H     -122.726    -795.642     174.213
  H     -124.955    -797.022     172.622
  H     -124.202    -794.901     171.637
  H     -117.201    -799.597     177.651
  H     -117.118    -799.051     175.958
  H     -122.505    -795.387     171.755
  P     -124.458    -793.641     174.155
  C     -126.214    -793.794     172.276
  O     -124.867    -793.466     172.600
  O     -122.852    -793.611     174.086
  O     -125.094    -792.704     175.116
  H     -122.492    -794.348     173.563
  H     -126.366    -793.596     171.210
  H     -126.904    -793.154     172.832
  H     -126.412    -794.859     172.478
  H     -119.826    -795.348     168.804
  H     -120.908    -796.088     167.649
  H     -120.754    -796.758     169.256

 3  4  5  6  7  8  9  10  11  12  22  25  29  30  31  32 0
 6-311+G(2d,p)
 ****
 33  36  37 0
 6-311+G(2d,p)
 ****
 1  2  13  14  15  16  17  18  19  20  21  23  24  26 0
 3-21G
 ****
 27  28  34  35  38  39  40  41  42  43  44  45  46  47  48 0
 3-21G
 ****


