%nproc=1
%NoSave
%Mem=1900MB
#P OB98/GEN NMR

erre ene a

0 1
  C      -92.415      65.409     -45.319
  O      -92.663      64.933     -46.627
  H      -93.048      66.276     -45.119
  H      -92.663      64.620     -44.605
  H      -91.363      65.678     -45.196
  P      -92.092      65.804     -47.846
  C      -94.176      65.055     -49.200
  O      -92.765      65.210     -49.180
  C      -94.604      64.211     -50.399
  O      -94.183      62.836     -50.172
  C      -96.119      64.201     -50.657
  O      -96.339      64.222     -52.071
  C      -96.556      62.853     -50.109
  O      -97.749      62.373     -50.720
  C      -95.328      61.998     -50.407
  N      -97.704      57.607     -49.450
  C      -97.756      58.449     -50.503
  N      -97.046      59.577     -50.702
  C      -96.162      59.766     -49.708
  C      -95.987      58.991     -48.574
  C      -96.825      57.869     -48.454
  N      -96.827      57.041     -47.354
  N      -95.021      59.544     -47.756
  C      -94.641      60.645     -48.373
  N      -95.303      60.823     -49.555
  O      -90.571      65.306     -47.940
  O      -92.188      67.282     -47.682
  H      -97.944      61.480     -50.373
  H      -90.016      65.840     -47.343
  H      -98.470      58.192     -51.281
  H      -93.919      61.358     -47.999
  H      -95.296      61.653     -51.449
  H      -96.728      62.935     -49.031
  H      -96.653      65.035     -50.188
  H      -94.066      64.568     -51.285
  H      -94.644      66.042     -49.276
  H      -97.536      56.325     -47.307
  H      -96.258      57.286     -46.556
  H      -94.502      64.584     -48.267
  P      -97.547      65.122     -52.618
  C      -98.110      64.076     -54.936
  O      -97.488      65.137     -54.218
  O      -97.109      66.609     -52.218
  O      -98.879      64.766     -52.038
  H      -97.892      67.149     -52.017
  H      -97.982      64.233     -55.987
  H      -99.154      64.052     -54.704
  H      -97.661      63.146     -54.657

 6  7  8  9  10  11  12  13  14  15  25  28  32  33  34  35 0
 6-311+G(2d,p)
 ****
 36  39  40 0
 6-311+G(2d,p)
 ****
 1  2  3  4  5  16  17  18  19  20  21  22  23  24 0
 3-21G
 ****
 26  27  29  30  31  37  38  41  42  43  44  45  46  47 0
 3-21G
 ****
 48 0
 3-21G
 ****


