%nproc=1
%NoSave
%Mem=1900MB
#P OB98/GEN NMR

erre ene a

0 1
  C      491.349     -85.415      76.530
  O      490.920     -85.565      75.179
  P      491.350     -84.606      73.977
  C      489.522     -82.842      74.626
  O      490.884     -83.119      74.336
  C      489.274     -81.379      75.026
  O      489.701     -80.505      73.948
  C      487.780     -81.122      75.227
  O      487.165     -81.441      76.458
  C      487.571     -79.681      74.786
  O      487.637     -78.760      75.877
  C      488.734     -79.443      73.816
  N      488.665     -76.651      69.527
  C      489.193     -76.336      70.763
  N      489.726     -75.102      70.896
  N      489.181     -77.154      71.786
  C      488.539     -78.316      71.542
  C      487.962     -78.734      70.366
  C      488.030     -77.847      69.223
  O      487.593     -78.082      68.101
  N      487.381     -79.973      70.502
  C      487.588     -80.289      71.764
  N      488.294     -79.318      72.434
  O      491.029     -85.104      72.608
  O      492.958     -84.542      74.110
  H      487.663     -77.858      75.506
  H      493.305     -84.451      73.199
  H      488.724     -75.994      68.768
  H      487.256     -81.206      72.236
  H      489.260     -78.510      74.056
  H      486.583     -79.552      74.328
  H      489.659     -74.392      70.189
  H      487.244     -81.732      74.482
  H      489.913     -74.792      71.851
  H      489.880     -81.107      75.891
  H      489.227     -83.518      75.435
  H      488.899     -83.099      73.765
  P      486.387     -82.799      76.805
  C      484.060     -81.731      76.845
  O      484.900     -82.682      76.221
  O      486.145     -82.712      78.386
  O      487.110     -84.056      76.448
  H      485.913     -83.588      78.743
  H      483.018     -81.948      76.587
  H      484.304     -80.729      76.492
  H      484.165     -81.770      77.935
  H      490.916     -86.188      77.130
  H      491.038     -84.460      76.899
  H      492.416     -85.484      76.575

 3  4  5  6  7  8  9  10  11  12  23  26  30  31 0
 6-311+G(2d,p)
 ****
 33  35  36  37  38 0
 6-311+G(2d,p)
 ****
 1  2  13  14  15  16  17  18  19  20  21  22  24  25 0
 3-21G
 ****
 27  28  29  32  34  39  40  41  42  43  44  45  46  47  48  49 0
 3-21G
 ****


