%nproc=1
%NoSave
%Mem=1900MB
#P OB98/GEN NMR

erre ene a

0 1
  C     -502.710    -105.068     419.770
  O     -501.531    -105.669     419.215
  P     -500.908    -104.955     417.924
  C     -500.161    -107.244     416.936
  O     -499.778    -105.926     417.315
  C     -498.953    -108.179     417.030
  O     -498.565    -108.425     418.398
  C     -499.216    -109.561     416.436
  O     -499.209    -109.518     415.014
  C     -498.072    -110.360     417.054
  O     -496.845    -110.124     416.333
  C     -497.973    -109.747     418.464
  N     -497.687    -113.936     421.379
  C     -496.842    -113.424     420.458
  N     -496.992    -112.297     419.723
  C     -498.155    -111.685     420.018
  C     -499.106    -112.086     420.938
  C     -498.839    -113.281     421.638
  N     -499.701    -113.810     422.573
  N     -500.159    -111.201     420.977
  C     -499.858    -110.289     420.070
  N     -498.649    -110.536     419.478
  O     -500.067    -103.739     418.542
  O     -501.931    -104.485     416.939
  H     -496.118    -110.493     416.873
  H     -500.517    -102.898     418.346
  H     -495.933    -113.984     420.283
  H     -500.481    -109.439     419.811
  H     -496.936    -109.626     418.782
  H     -498.257    -111.444     417.045
  H     -500.178    -109.957     416.788
  H     -498.110    -107.707     416.508
  H     -500.555    -107.248     415.917
  H     -499.472    -114.713     422.970
  H     -500.607    -113.378     422.713
  H     -500.965    -107.578     417.600
  P     -500.228    -110.479     414.233
  C     -498.463    -111.927     413.060
  O     -499.421    -110.895     412.904
  O     -501.302    -109.430     413.676
  O     -500.782    -111.608     415.044
  H     -500.871    -108.642     413.286
  H     -498.017    -112.134     412.085
  H     -498.946    -112.838     413.426
  H     -497.681    -111.615     413.753
  H     -503.030    -105.631     420.622
  H     -503.487    -105.062     419.035
  H     -502.492    -104.063     420.067

 3  4  5  6  7  8  9  10  11  12  22  25  29  30  31  32 0
 6-311+G(2d,p)
 ****
 33  36  37 0
 6-311+G(2d,p)
 ****
 1  2  13  14  15  16  17  18  19  20  21  23  24  26 0
 3-21G
 ****
 27  28  34  35  38  39  40  41  42  43  44  45  46  47  48 0
 3-21G
 ****


