%nproc=1
%NoSave
%Mem=1900MB
#P OB98/GEN NMR

erre ene a

0 1
  C       60.474      20.250     146.087
  O       59.920      19.333     145.163
  H       61.284      20.795     145.595
  H       60.883      19.713     146.948
  H       59.716      20.965     146.416
  P       58.589      18.559     145.629
  C       56.812      20.339     144.870
  O       57.427      19.080     144.650
  C       56.254      20.897     143.559
  O       57.333      20.992     142.597
  C       55.150      20.036     142.940
  O       54.179      20.900     142.342
  C       55.877      19.249     141.861
  O       54.991      18.808     140.835
  C       56.952      20.255     141.419
  N       58.105      19.599     140.801
  C       58.031      19.357     139.426
  O       57.021      19.670     138.792
  N       59.080      18.725     138.808
  C       60.091      18.308     139.511
  N       61.090      17.672     138.839
  C       60.186      18.499     140.974
  C       59.176      19.150     141.544
  O       58.268      19.276     147.022
  O       58.742      17.076     145.712
  H       55.492      18.208     140.235
  H       58.397      20.239     147.004
  H       61.040      18.120     141.518
  H       59.169      19.338     142.613
  H       56.536      20.971     140.697
  H       56.349      18.361     142.297
  H       54.664      19.375     143.655
  H       55.904      21.920     143.741
  H       60.975      17.547     137.839
  H       57.535      21.047     145.288
  H       61.892      17.260     139.291
  H       56.007      20.200     145.598
  P       53.082      21.606     143.274
  C       53.624      24.125     143.198
  O       52.792      23.082     142.714
  O       53.329      21.521     144.745
  O       51.730      20.822     142.887
  H       51.209      20.696     143.705
  H       53.330      25.052     142.752
  H       54.642      23.915     142.946
  H       53.527      24.195     144.261

 6  7  8  9  10  11  12  13  14  15  16  26  30  31  32  33  35 0
 6-311+G(2d,p)
 ****
 37  38 0
 6-311+G(2d,p)
 ****
 1  2  3  4  5  17  18  19  20  21  22  23  24  25 0
 3-21G
 ****
 27  28  29  34  36  39  40  41  42  43  44  45  46 0
 3-21G
 ****


