%nproc=1
%NoSave
%Mem=1900MB
#P OB98/GEN NMR

erre ene a

0 1
  C       46.162     477.473     369.367
  O       44.997     476.722     369.104
  H       46.323     478.180     368.549
  H       47.028     476.809     369.437
  H       46.050     478.038     370.300
  P       44.572     475.638     370.209
  C       44.429     473.130     369.530
  O       45.266     474.257     369.782
  C       43.845     473.219     368.128
  O       44.907     473.507     367.163
  C       43.196     471.930     367.635
  O       41.904     471.742     368.175
  C       43.197     472.152     366.131
  O       42.076     472.938     365.709
  C       44.510     472.928     365.900
  N       46.604     470.976     361.669
  C       45.614     471.869     361.857
  N       45.129     472.350     363.022
  C       45.791     471.822     364.073
  C       46.818     470.900     364.029
  C       47.232     470.472     362.759
  N       48.228     469.537     362.565
  N       47.212     470.570     365.310
  C       46.447     471.280     366.115
  N       45.572     472.062     365.395
  O       43.016     475.402     369.897
  O       44.796     476.051     371.625
  H       41.290     472.372     365.828
  H       42.473     475.912     370.524
  H       45.149     472.254     360.949
  H       46.478     471.268     367.192
  H       44.392     473.743     365.190
  H       43.156     471.205     365.601
  H       43.840     471.066     367.876
  H       43.136     474.059     368.090
  H       43.610     473.106     370.265
  H       45.025     472.218     369.640
  H       48.426     469.226     361.643
  H       48.626     469.072     363.382
  P       41.408     470.228     368.413
  C       39.474     469.660     366.743
  O       40.873     469.680     367.013
  O       40.075     470.398     369.290
  O       42.407     469.351     369.090
  H       39.998     469.662     369.928
  H       39.305     469.263     365.764
  H       39.086     470.656     366.796
  H       38.980     469.046     367.467

 6  7  8  9  10  11  12  13  14  15  25  28  32  33  34  35 0
 6-311+G(2d,p)
 ****
 36  37  40 0
 6-311+G(2d,p)
 ****
 1  2  3  4  5  16  17  18  19  20  21  22  23  24 0
 3-21G
 ****
 26  27  29  30  31  38  39 41  42  43  44  45  46  47  48 0
 3-21G
 ****


