%nproc=1
%NoSave
%Mem=1900MB
#P OB98/GEN NMR

erre ene a

0 1
  C      118.143     336.621    -874.712
  O      117.718     337.961    -874.863
  H      119.179     336.540    -875.054
  H      117.524     335.950    -875.315
  H      118.097     336.323    -873.658
  P      116.203     338.328    -874.502
  C      116.943     339.348    -872.241
  O      116.118     338.393    -872.904
  C      116.417     339.623    -870.834
  O      115.115     340.237    -870.894
  C      116.251     338.374    -869.974
  O      117.507     337.912    -869.519
  C      115.321     338.905    -868.895
  O      116.045     339.680    -867.924
  C      114.376     339.811    -869.727
  N      113.127     339.159    -870.109
  C      112.183     338.994    -869.087
  O      112.429     339.377    -867.943
  N      110.992     338.384    -869.394
  C      110.743     338.011    -870.612
  N      109.545     337.423    -870.851
  C      111.698     338.196    -871.719
  C      112.864     338.760    -871.396
  O      115.147     337.479    -875.144
  O      116.066     339.863    -874.934
  H      115.384     339.953    -867.258
  H      115.711     339.933    -875.841
  H      111.447     337.883    -872.720
  H      113.622     338.933    -872.155
  H      114.125     340.717    -869.162
  H      114.818     338.103    -868.353
  H      115.720     337.600    -870.538
  H      117.099     340.344    -870.356
  H      108.913     337.329    -870.057
  H      116.916     340.263    -872.841
  H      109.183     337.240    -871.775
  H      117.981     338.996    -872.194
  P      117.701     336.412    -868.986
  C      118.830     335.106    -870.892
  O      117.600     335.468    -870.285
  O      116.811     336.020    -867.855
  O      119.259     336.340    -868.629
  H      119.436     336.792    -867.765
  H      118.639     334.482    -871.740
  H      119.433     334.574    -870.186
  H      119.345     335.989    -871.208

 6  7  8  9  10  11  12  13  14  15  16  26  30  31  32  33  35 0
 6-311+G(2d,p)
 ****
 37  38 0
 6-311+G(2d,p)
 ****
 1  2  3  4  5  17  18  19  20  21  22  23  24  25 0
 3-21G
 ****
 27  28  29  34  36  39  40  41  42  43  44  45  46 0
 3-21G
 ****


