%nproc=1
%NoSave
%Mem=1900MB
#P OB98/GEN NMR

erre ene a

0 1
  C     -629.112     206.942     250.174
  O     -629.296     205.529     250.301
  P     -627.988     204.601     250.225
  C     -628.178     203.733     252.664
  O     -627.395     204.427     251.709
  C     -627.344     203.338     253.892
  O     -626.199     202.529     253.504
  C     -626.789     204.539     254.669
  O     -626.682     204.174     256.047
  C     -625.395     204.689     254.095
  O     -624.549     205.457     254.950
  C     -625.010     203.219     253.926
  N     -620.228     201.718     253.372
  C     -621.004     201.817     254.508
  N     -620.430     201.421     255.667
  N     -622.233     202.260     254.515
  C     -622.685     202.582     253.279
  C     -622.013     202.538     252.078
  C     -620.645     202.068     252.094
  O     -619.905     201.976     251.118
  N     -622.805     202.973     251.044
  C     -623.947     203.285     251.621
  N     -623.938     203.033     252.966
  O     -626.919     205.551     249.504
  O     -628.190     203.337     249.462
  H     -624.407     204.934     255.768
  H     -626.762     205.237     248.595
  H     -619.281     201.380     253.428
  H     -624.809     203.696     251.119
  H     -624.673     202.771     254.872
  H     -625.446     205.192     253.116
  H     -619.507     201.021     255.727
  H     -627.384     205.455     254.583
  H     -620.988     201.446     256.508
  H     -627.966     202.725     254.557
  H     -628.609     202.833     252.216
  H     -629.029     204.360     252.946
  P     -627.703     204.868     257.067
  C     -628.960     202.641     257.506
  O     -629.034     203.977     257.047
  O     -628.141     206.209     256.308
  O     -627.137     205.150     258.417
  H     -628.427     206.882     256.945
  H     -629.397     202.583     258.507
  H     -627.933     202.271     257.539
  H     -629.539     202.005     256.831
  H     -630.060     207.433     250.243
  H     -628.666     207.160     249.226
  H     -628.472     207.290     250.958

 3  4  5  6  7  8  9  10  11  12  23  26  30  31 0
 6-311+G(2d,p)
 ****
 33  35  36  37  38 0
 6-311+G(2d,p)
 ****
 1  2  13  14  15  16  17  18  19  20  21  22  24  25 0
 3-21G
 ****
 27  28  29  32  34  39  40  41  42  43  44  45  46  47  48  49 0
 3-21G
 ****


