%nproc=1
%NoSave
%Mem=1900MB
#P OB98/GEN NMR

erre ene a

0 1
  C      -87.577     254.903    -159.104
  O      -88.172     256.131    -158.726
  H      -87.810     254.151    -158.345
  H      -86.489     255.002    -159.169
  H      -87.975     254.569    -160.065
  P      -87.845     257.433    -159.601
  C      -85.267     257.367    -159.386
  O      -86.477     258.015    -159.007
  C      -84.077     258.046    -158.718
  O      -83.912     259.383    -159.232
  C      -84.240     258.197    -157.212
  O      -84.020     256.966    -156.555
  C      -83.224     259.284    -156.923
  O      -81.895     258.753    -156.858
  C      -83.393     260.201    -158.157
  N      -84.265     261.342    -157.898
  C      -83.624     262.542    -157.571
  O      -82.397     262.600    -157.520
  N      -84.399     263.639    -157.289
  C      -85.690     263.554    -157.346
  N      -86.399     264.678    -157.055
  C      -86.404     262.312    -157.699
  C      -85.637     261.255    -157.956
  O      -88.939     258.446    -159.739
  O      -87.399     256.832    -161.016
  H      -81.755     258.280    -157.702
  H      -88.172     256.728    -161.601
  H      -87.482     262.289    -157.739
  H      -86.081     260.303    -158.227
  H      -82.419     260.581    -158.490
  H      -83.429     259.781    -155.976
  H      -85.234     258.590    -156.978
  H      -83.171     257.477    -158.963
  H      -85.867     265.506    -156.807
  H      -85.186     257.445    -160.475
  H      -87.399     264.754    -157.151
  H      -85.297     256.305    -159.116
  P      -84.745     256.644    -155.162
  C      -83.431     258.451    -153.875
  O      -83.688     257.058    -154.026
  O      -85.312     255.270    -155.040
  O      -85.851     257.798    -155.055
  H      -86.606     257.632    -155.670
  H      -82.716     258.599    -153.093
  H      -84.341     258.957    -153.626
  H      -83.044     258.844    -154.792

 6  7  8  9  10  11  12  13  14  15  16  26  30  31  32  33  35 0
 6-311+G(2d,p)
 ****
 37  38 0
 6-311+G(2d,p)
 ****
 1  2  3  4  5  17  18  19  20  21  22  23  24  25 0
 3-21G
 ****
 27  28  29  34  36  39  40  41  42  43  44  45  46 0
 3-21G
 ****


