%nproc=1
%NoSave
%Mem=1900MB
#P OB98/GEN NMR

erre ene a

0 1
  C      131.439    -144.617     181.350
  O      132.812    -144.273     181.564
  P      133.924    -145.344     181.173
  C      134.713    -143.957     179.143
  O      134.243    -145.222     179.600
  C      134.443    -143.789     177.641
  O      133.000    -143.881     177.409
  C      134.871    -142.442     177.041
  O      136.197    -142.322     176.543
  C      133.935    -142.334     175.835
  O      134.489    -143.081     174.723
  C      132.653    -143.003     176.315
  N      127.947    -141.195     175.383
  C      128.676    -142.155     174.788
  N      129.926    -142.576     175.088
  C      130.412    -141.908     176.144
  C      129.773    -140.898     176.867
  C      128.479    -140.544     176.438
  N      127.731    -139.551     177.053
  N      130.585    -140.441     177.881
  C      131.706    -141.140     177.769
  N      131.638    -142.053     176.749
  O      133.710    -146.738     181.671
  O      135.258    -144.717     181.835
  H      135.287    -142.593     174.447
  H      135.807    -145.453     182.181
  H      128.207    -142.656     173.924
  H      132.567    -141.030     178.404
  H      132.189    -143.615     175.540
  H      133.820    -141.299     175.493
  H      134.660    -141.620     177.746
  H      134.915    -144.611     177.086
  H      135.783    -143.864     179.330
  H      126.841    -139.325     176.657
  H      128.146    -139.025     177.808
  H      134.213    -143.186     179.746
  P      137.367    -141.643     177.419
  C      138.946    -143.729     177.400
  O      138.122    -142.849     178.144
  O      136.909    -140.557     178.333
  O      138.410    -141.190     176.295
  H      138.857    -141.911     175.839
  H      139.531    -144.339     178.104
  H      139.636    -143.162     176.763
  H      138.331    -144.395     176.779
  H      130.815    -143.804     181.658
  H      131.197    -145.489     181.921
  H      131.279    -144.815     180.311

 3  4  5  6  7  8  9  10  11  12  22  25  29  30  31  32 0
 6-311+G(2d,p)
 ****
 33  36  37 0
 6-311+G(2d,p)
 ****
 1  2  13  14  15  16  17  18  19  20  21  23  24  26 0
 3-21G
 ****
 27  28  34  35  38  39  40  41  42  43  44  45  46  47  48 0
 3-21G
 ****


