%nproc=1
%NoSave
%Mem=1900MB
#P OB98/GEN NMR

erre ene a

0 1
  C     -799.725     478.339    -102.815
  O     -799.665     479.638    -103.410
  P     -798.755     479.837    -104.708
  C     -800.069     481.762    -105.836
  O     -799.669     480.391    -105.910
  C     -801.538     481.864    -105.403
  O     -801.709     481.234    -104.116
  C     -802.058     483.302    -105.238
  O     -802.613     483.958    -106.357
  C     -803.196     483.090    -104.245
  O     -804.390     482.674    -104.962
  C     -802.715     481.945    -103.372
  N     -803.834     483.858     -98.743
  C     -804.625     483.513     -99.788
  N     -804.238     482.990    -100.987
  C     -802.916     482.857    -101.035
  C     -801.986     483.178    -100.060
  C     -802.505     483.700     -98.858
  N     -801.721     484.072     -97.796
  N     -800.696     482.902    -100.478
  C     -800.848     482.441    -101.712
  N     -802.161     482.382    -102.087
  O     -797.843     478.703    -105.047
  O     -797.889     481.136    -104.310
  H     -805.045     482.439    -104.278
  H     -796.972     481.030    -104.673
  H     -805.695     483.631     -99.652
  H     -800.026     482.148    -102.344
  H     -803.518     481.227    -103.133
  H     -803.462     484.004    -103.715
  H     -801.282     483.929    -104.779
  H     -802.165     481.318    -106.130
  H     -799.935     482.226    -106.812
  H     -802.161     484.470     -96.986
  H     -800.696     484.024     -97.885
  H     -799.377     482.264    -105.128
  P     -801.706     484.850    -107.353
  C     -801.762     483.316    -109.472
  O     -801.031     483.816    -108.364
  O     -800.734     485.754    -106.662
  O     -802.791     485.590    -108.244
  H     -803.279     485.013    -108.858
  H     -801.064     482.815    -110.155
  H     -802.256     484.130    -110.009
  H     -802.521     482.605    -109.131
  H     -800.370     478.367    -101.962
  H     -798.744     478.040    -102.511
  H     -800.106     477.638    -103.528

 3  4  5  6  7  8  9  10  11  12  22  25  29  30  31  32 0
 6-311+G(2d,p)
 ****
 33  36  37 0
 6-311+G(2d,p)
 ****
 1  2  13  14  15  16  17  18  19  20  21  23  24  26 0
 3-21G
 ****
 27  28  34  35  38  39  40  41  42  43  44  45  46  47  48 0
 3-21G
 ****


