%nproc=1
%NoSave
%Mem=1900MB
#P OB98/GEN NMR

erre ene a

0 1
  C      120.207     -82.678    1276.733
  O      120.312     -82.317    1278.091
  P      120.947     -83.349    1279.146
  C      120.655     -85.862    1279.605
  O      120.024     -84.663    1279.168
  C      119.673     -87.035    1279.516
  O      119.143     -87.150    1278.182
  C      120.307     -88.381    1279.840
  O      120.491     -88.550    1281.231
  C      119.292     -89.345    1279.204
  O      118.169     -89.543    1280.101
  C      118.837     -88.546    1277.966
  N      118.408     -91.692    1273.969
  C      117.688     -91.569    1275.112
  N      117.886     -90.728    1276.135
  C      118.978     -89.980    1275.938
  C      119.842     -90.022    1274.851
  C      119.512     -90.908    1273.814
  N      120.206     -91.003    1272.630
  N      120.883     -89.125    1275.015
  C      120.665     -88.561    1276.188
  N      119.478     -89.006    1276.747
  O      121.252     -82.777    1280.491
  O      122.289     -83.847    1278.428
  H      118.488     -90.115    1280.820
  H      123.061     -83.611    1278.981
  H      116.816     -92.224    1275.185
  H      121.286     -87.825    1276.662
  H      117.749     -88.613    1277.802
  H      119.703     -90.321    1278.979
  H      121.262     -88.490    1279.302
  H      118.833     -86.829    1280.199
  H      120.964     -85.712    1280.642
  H      119.796     -91.568    1271.887
  H      120.831     -90.235    1272.364
  H      121.537     -86.048    1278.998
  P      121.488     -89.679    1281.772
  C      121.520     -92.181    1281.113
  O      120.743     -91.089    1281.598
  O      122.080     -89.420    1283.125
  O      122.633     -89.749    1280.644
  H      123.478     -89.995    1281.045
  H      121.641     -92.063    1280.035
  H      121.009     -93.093    1281.320
  H      122.507     -92.166    1281.596
  H      119.764     -81.874    1276.183
  H      119.596     -83.551    1276.642
  H      121.182     -82.883    1276.342

 3  4  5  6  7  8  9  10  11  12  22  25  29  30  31  32 0
 6-311+G(2d,p)
 ****
 33  36  37 0
 6-311+G(2d,p)
 ****
 1  2  13  14  15  16  17  18  19  20  21  23  24  26 0
 3-21G
 ****
 27  28  34  35  38  39  40  41  42  43  44  45  46  47  48 0
 3-21G
 ****


