%nproc=1
%NoSave
%Mem=1900MB
#P OB98/GEN NMR

erre ene a

0 1
  C     -247.927     316.791     669.592
  O     -247.841     316.587     670.997
  P     -246.481     317.004     671.733
  C     -247.414     319.117     672.999
  O     -246.928     317.784     673.064
  C     -247.878     319.578     674.384
  O     -249.062     318.850     674.766
  C     -246.870     319.338     675.498
  O     -245.824     320.304     675.473
  C     -247.772     319.404     676.723
  O     -248.030     320.773     677.087
  C     -249.058     318.735     676.208
  N     -249.190     317.341     676.633
  C     -250.241     317.051     677.491
  O     -251.032     317.901     677.895
  N     -250.340     315.745     677.896
  C     -249.483     314.736     677.582
  O     -249.595     313.592     678.002
  C     -248.365     315.114     676.690
  C     -248.273     316.374     676.262
  O     -245.949     318.142     670.743
  O     -245.554     315.856     671.937
  H     -246.677     318.577     670.274
  H     -248.663     321.119     676.425
  H     -251.113     315.507     678.500
  H     -247.662     314.331     676.427
  H     -247.459     316.661     675.615
  H     -249.940     319.280     676.561
  H     -247.327     318.918     677.596
  H     -246.443     318.331     675.406
  H     -248.137     320.641     674.319
  H     -248.256     319.157     672.294
  H     -246.611     319.768     672.620
  P     -244.470     319.903     676.256
  C     -243.129     319.234     674.116
  O     -243.277     320.112     675.214
  O     -244.633     318.318     676.369
  O     -244.308     320.610     677.569
  H     -244.970     317.911     675.560
  H     -242.521     319.726     673.350
  H     -244.097     318.976     673.672
  H     -242.619     318.320     674.449
  H     -248.886     316.468     669.243
  H     -247.161     316.227     669.102
  H     -247.799     317.831     669.374

 3  4  5  6  7  8  9  10  11  12  13  24  28  29  30  31  32 0
 6-311+G(2d,p)
 ****
 33  34 0
 6-311+G(2d,p)
 ****
 1  2  14  15  16  17  18  19  20  21  22  23  25  26  27 0
 3-21G
 ****
 35  36  37  38  39  40  41  42  43  44  45 0
 3-21G
 ****


