%nproc=1
%NoSave
%Mem=1900MB
#P OB98/GEN NMR

erre ene a

0 1
  C     -326.609    -425.766     175.127
  O     -325.480    -425.817     174.249
  P     -324.274    -426.782     174.697
  C     -322.237    -425.412     173.851
  O     -323.054    -426.558     173.677
  C     -321.503    -425.064     172.557
  O     -320.669    -426.157     172.085
  C     -322.430    -424.727     171.402
  O     -322.893    -423.396     171.530
  C     -321.519    -424.933     170.193
  O     -320.716    -423.761     169.943
  C     -320.648    -426.110     170.638
  N     -321.205    -428.904     166.431
  C     -320.921    -427.557     166.569
  N     -320.738    -426.861     165.434
  N     -320.825    -426.953     167.722
  C     -321.033    -427.767     168.790
  C     -321.299    -429.119     168.783
  C     -321.407    -429.781     167.489
  O     -321.632    -430.973     167.311
  N     -321.381    -429.621     170.050
  C     -321.301    -428.551     170.822
  N     -321.023    -427.408     170.106
  O     -324.818    -428.240     174.339
  O     -323.935    -426.664     176.142
  H     -319.975    -424.008     169.368
  H     -325.014    -428.739     175.157
  H     -321.286    -429.309     165.518
  H     -321.406    -428.553     171.898
  H     -319.595    -425.958     170.344
  H     -322.098    -425.120     169.282
  H     -320.795    -427.268     164.499
  H     -323.272    -425.434     171.375
  H     -320.515    -425.871     165.512
  H     -320.834    -424.218     172.769
  H     -321.506    -425.590     174.650
  H     -322.862    -424.572     174.181
  P     -324.389    -423.064     171.062
  C     -323.769    -420.543     170.875
  O     -324.667    -421.511     171.382
  O     -325.296    -423.847     172.115
  O     -324.697    -423.493     169.656
  H     -326.010    -424.313     171.655
  H     -324.306    -419.612     170.710
  H     -323.303    -420.862     169.934
  H     -322.973    -420.357     171.617
  H     -327.342    -425.096     174.727
  H     -326.297    -425.420     176.090
  H     -327.033    -426.744     175.220

 3  4  5  6  7  8  9  10  11  12  23  26  30  31 0
 6-311+G(2d,p)
 ****
 33  35  36  37  38 0
 6-311+G(2d,p)
 ****
 1  2  13  14  15  16  17  18  19  20  21  22  24  25 0
 3-21G
 ****
 27  28  29  32  34  39  40  41  42  43  44  45  46  47  48  49 0
 3-21G
 ****


