%nproc=1
%NoSave
%Mem=1900MB
#P OB98/GEN NMR

erre ene a

0 1
  C      499.148     644.493    -677.045
  O      500.349     644.037    -676.454
  P      500.304     643.080    -675.169
  C      502.788     643.759    -675.077
  O      501.814     642.788    -674.702
  C      504.144     643.417    -674.456
  O      504.012     643.183    -673.034
  C      504.778     642.159    -675.009
  O      505.288     642.350    -676.319
  C      505.831     641.878    -673.948
  O      506.998     642.696    -674.153
  C      505.097     642.304    -672.661
  N      504.617     641.161    -671.895
  C      505.232     640.953    -670.651
  O      506.174     641.654    -670.293
  N      504.760     639.938    -669.855
  C      503.853     639.133    -670.300
  N      503.373     638.184    -669.442
  C      503.295     639.220    -671.667
  C      503.697     640.266    -672.396
  O      499.443     641.866    -675.304
  O      499.754     644.032    -673.997
  H      499.017     643.586    -673.542
  H      506.699     643.635    -674.079
  H      502.575     638.482    -672.022
  H      503.328     640.425    -673.400
  H      505.756     642.904    -672.023
  H      506.164     640.832    -673.957
  H      504.043     641.347    -675.015
  H      504.803     644.287    -674.602
  H      503.772     638.158    -668.512
  H      502.455     644.741    -674.723
  H      502.475     637.737    -669.570
  H      502.859     643.794    -676.170
  P      504.793     641.320    -677.450
  C      507.065     640.938    -678.645
  O      505.750     641.493    -678.715
  O      503.398     641.945    -677.940
  O      504.616     639.914    -676.977
  H      502.765     641.231    -678.147
  H      507.438     640.832    -679.664
  H      507.049     639.960    -678.160
  H      507.711     641.618    -678.095
  H      499.378     645.116    -677.884
  H      498.588     645.055    -676.327
  H      498.570     643.654    -677.371

 3  4  5  6  7  8  9  10  11  12  13  24  27  28  29  30  32 0
 6-311+G(2d,p)
 ****
 34  35 0
 6-311+G(2d,p)
 ****
 1  2  14  15  16  17  18  19  20  21  22  23  25  26 0
 3-21G
 ****
 31  33  36  37  38  39  40  41  42  43  44  45  46 0
 3-21G
 ****


