%nproc=1
%NoSave
%Mem=1900MB
#P OB98/GEN NMR

erre ene a

0 1
  C       51.550     -50.286     -11.130
  O       51.868     -49.258     -10.209
  P       50.688     -48.315      -9.678
  C       51.455     -46.328     -11.168
  O       51.161     -46.794      -9.861
  C       52.793     -45.587     -11.182
  O       53.020     -45.026     -12.510
  C       52.877     -44.429     -10.176
  O       54.234     -44.355      -9.716
  C       52.566     -43.222     -11.040
  O       53.004     -41.999     -10.471
  C       53.289     -43.621     -12.331
  N       52.860     -42.838     -13.488
  C       53.378     -41.554     -13.619
  O       54.167     -41.046     -12.823
  N       52.909     -40.827     -14.679
  C       51.930     -41.212     -15.548
  O       51.471     -40.467     -16.406
  C       51.419     -42.578     -15.361
  C       51.899     -43.317     -14.358
  O       50.725     -48.538      -8.094
  O       49.344     -48.616     -10.252
  H       52.778     -41.287     -11.096
  H       50.027     -49.161      -7.821
  H       53.283     -39.898     -14.796
  H       50.656     -42.924     -16.046
  H       51.525     -44.320     -14.185
  H       54.374     -43.516     -12.204
  H       51.483     -43.154     -11.194
  H       52.192     -44.533      -9.330
  H       53.595     -46.312     -10.996
  H       50.666     -45.648     -11.492
  H       51.475     -47.174     -11.864
  P       54.485     -44.236      -8.134
  C       55.512     -41.858      -8.482
  O       55.644     -43.151      -7.932
  O       55.208     -45.635      -7.841
  O       53.235     -44.031      -7.342
  H       55.873     -45.860      -8.512
  H       54.472     -41.521      -8.472
  H       55.880     -41.863      -9.510
  H       56.114     -41.161      -7.894
  H       52.439     -50.823     -11.386
  H       51.127     -49.855     -12.013
  H       50.844     -50.956     -10.686

 3  4  5  6  7  8  9  10  11  12  13  23  28  29  30  31  32 0
 6-311+G(2d,p)
 ****
 33  34 0
 6-311+G(2d,p)
 ****
 1  2  14  15  16  17  18  19  20  21  22  24  25  26 0
 3-21G
 ****
 27  35  36  37  38  39  40  41  42  43  44  45 0
 3-21G
 ****


