%nproc=1
%NoSave
%Mem=1900MB
#P OB98/GEN NMR

erre ene a

0 1
  C     -536.578     -82.410    -680.218
  O     -536.899     -83.692    -679.655
  P     -537.544     -83.722    -678.184
  C     -536.565     -85.945    -677.241
  O     -537.708     -85.254    -677.731
  C     -536.572     -87.397    -677.716
  O     -537.860     -88.030    -677.514
  C     -536.281     -87.560    -679.200
  O     -534.882     -87.513    -679.463
  C     -536.823     -88.955    -679.461
  O     -535.869     -89.943    -679.024
  C     -538.069     -88.991    -678.565
  N     -541.168     -90.263    -682.444
  C     -539.991     -90.776    -682.023
  N     -539.216     -90.372    -680.996
  C     -539.778     -89.331    -680.360
  C     -540.978     -88.703    -680.666
  C     -541.686     -89.208    -681.769
  N     -542.895     -88.686    -682.183
  N     -541.226     -87.663    -679.800
  C     -540.198     -87.668    -678.967
  N     -539.300     -88.657    -679.268
  O     -539.055     -83.259    -678.448
  O     -536.860     -82.837    -677.199
  H     -535.000     -89.678    -679.375
  H     -539.376     -82.738    -677.684
  H     -539.618     -91.623    -682.594
  H     -540.073     -86.999    -678.130
  H     -538.216     -89.969    -678.100
  H     -537.014     -89.141    -680.522
  H     -536.837     -86.819    -679.794
  H     -535.825     -87.948    -677.129
  H     -536.557     -85.910    -676.145
  H     -543.355     -89.120    -682.969
  H     -543.291     -87.910    -681.670
  H     -535.663     -85.426    -677.572
  P     -534.266     -86.100    -679.898
  C     -532.531     -87.552    -681.174
  O     -532.767     -86.413    -680.371
  O     -534.082     -85.337    -678.502
  O     -535.109     -85.325    -680.855
  H     -534.173     -84.370    -678.633
  H     -531.549     -87.447    -681.651
  H     -533.282     -87.652    -681.956
  H     -532.524     -88.450    -680.551
  H     -536.159     -82.544    -681.194
  H     -535.869     -81.912    -679.590
  H     -537.467     -81.819    -680.289

 3  4  5  6  7  8  9  10  11  12  22  25  29  30  31  32 0
 6-311+G(2d,p)
 ****
 33  36  37 0
 6-311+G(2d,p)
 ****
 1  2  13  14  15  16  17  18  19  20  21  23  24  26 0
 3-21G
 ****
 27  28  34  35  38  39  40  41  42  43  44  45  46  47  48 0
 3-21G
 ****


