%nproc=1
%NoSave
%Mem=1900MB
#P OB98/GEN NMR

erre ene a

0 1
  C      374.393    -176.932    -406.242
  O      373.916    -178.215    -406.606
  P      373.757    -179.309    -405.443
  C      375.512    -180.550    -403.926
  O      375.242    -179.802    -405.103
  C      377.000    -180.454    -403.569
  O      377.382    -179.067    -403.431
  C      377.376    -181.111    -402.250
  O      377.454    -182.524    -402.364
  C      378.707    -180.426    -401.946
  O      379.767    -181.039    -402.703
  C      378.446    -178.994    -402.462
  N      378.132    -178.050    -401.393
  C      379.129    -177.832    -400.451
  O      380.227    -178.386    -400.490
  N      378.816    -176.953    -399.442
  C      377.606    -176.343    -399.252
  O      377.370    -175.603    -398.310
  C      376.587    -176.638    -400.266
  C      376.887    -177.463    -401.271
  O      373.105    -180.520    -406.266
  O      372.951    -178.826    -404.284
  H      373.356    -180.492    -407.204
  H      379.916    -181.923    -402.304
  H      379.532    -176.765    -398.757
  H      375.610    -176.181    -400.143
  H      376.139    -177.699    -402.020
  H      379.330    -178.621    -403.002
  H      378.981    -180.488    -400.891
  H      376.648    -180.844    -401.475
  H      377.580    -180.884    -404.395
  H      375.247    -181.600    -404.101
  H      374.894    -180.166    -403.106
  P      377.384    -183.364    -400.990
  C      378.741    -183.216    -398.762
  O      378.673    -182.940    -400.144
  O      377.712    -184.841    -401.509
  O      376.076    -183.238    -400.279
  H      378.435    -184.856    -402.170
  H      379.790    -183.195    -398.448
  H      378.324    -184.204    -398.529
  H      378.188    -182.448    -398.210
  H      374.448    -176.312    -407.112
  H      375.366    -177.023    -405.807
  H      373.725    -176.492    -405.531

 3  4  5  6  7  8  9  10  11  12  13  24  28  29  30  31  32 0
 6-311+G(2d,p)
 ****
 33  34 0
 6-311+G(2d,p)
 ****
 1  2  14  15  16  17  18  19  20  21  22  23  25  26  27 0
 3-21G
 ****
 35  36  37  38  39  40  41  42  43  44  45 0
 3-21G
 ****


