%nproc=1
%NoSave
%Mem=1900MB
#P OB98/GEN NMR

erre ene a

0 1
  C     -251.337    -543.333     -58.437
  O     -250.861    -544.591     -57.990
  P     -251.057    -545.056     -56.469
  C     -249.354    -546.904     -57.020
  O     -249.723    -545.879     -56.108
  C     -247.844    -546.879     -57.254
  O     -247.525    -545.704     -58.032
  C     -246.978    -546.779     -55.999
  O     -246.715    -548.021     -55.363
  C     -245.686    -546.237     -56.594
  O     -244.951    -547.307     -57.223
  C     -246.199    -545.256     -57.649
  N     -244.011    -540.632     -57.779
  C     -243.719    -541.791     -58.415
  N     -244.339    -542.988     -58.312
  C     -245.388    -542.902     -57.479
  C     -245.808    -541.794     -56.768
  C     -245.071    -540.613     -56.940
  N     -245.386    -539.427     -56.310
  N     -246.916    -542.101     -55.999
  C     -247.162    -543.368     -56.258
  N     -246.271    -543.897     -57.152
  O     -252.343    -545.760     -56.198
  O     -250.892    -543.717     -55.620
  H     -244.255    -546.893     -57.769
  H     -251.251    -543.843     -54.719
  H     -242.873    -541.755     -59.098
  H     -247.965    -543.948     -55.823
  H     -245.583    -545.253     -58.557
  H     -245.022    -545.801     -55.840
  H     -247.383    -546.051     -55.292
  H     -247.574    -547.759     -57.847
  H     -249.868    -546.721     -57.974
  H     -244.878    -538.607     -56.590
  H     -246.260    -539.373     -55.814
  H     -249.679    -547.877     -56.638
  P     -247.059    -548.129     -53.795
  C     -245.946    -550.495     -53.713
  O     -246.011    -549.187     -53.197
  O     -248.489    -548.404     -53.493
  O     -246.541    -546.726     -53.223
  H     -245.580    -546.597     -53.252
  H     -245.072    -551.000     -53.289
  H     -245.844    -550.483     -54.799
  H     -246.839    -551.059     -53.426
  H     -251.109    -543.214     -59.476
  H     -250.865    -542.553     -57.876
  H     -252.397    -543.282     -58.297

 3  4  5  6  7  8  9  10  11  12  22  25  29  30  31  32 0
 6-311+G(2d,p)
 ****
 33  36  37 0
 6-311+G(2d,p)
 ****
 1  2  13  14  15  16  17  18  19  20  21  23  24  26 0
 3-21G
 ****
 27  28  34  35  38  39  40  41  42  43  44  45  46  47  48 0
 3-21G
 ****


