%nproc=1
%NoSave
%Mem=1900MB
#P OB98/GEN NMR

erre ene a

0 1
  C     -197.916     101.301     157.446
  O     -199.087     101.126     158.225
  P     -200.278     100.255     157.589
  C     -201.839     102.332     157.570
  O     -201.232     101.291     156.816
  C     -202.561     103.329     156.662
  O     -203.259     104.296     157.484
  C     -201.634     104.095     155.715
  O     -202.324     104.271     154.475
  C     -201.479     105.444     156.387
  O     -201.134     106.464     155.452
  C     -202.856     105.612     157.050
  N     -202.823     106.555     158.162
  C     -203.119     107.891     157.868
  O     -203.314     108.235     156.701
  N     -203.136     108.806     158.891
  C     -202.781     108.443     160.083
  N     -202.817     109.386     161.062
  C     -202.341     107.071     160.411
  C     -202.407     106.185     159.419
  O     -201.142      99.843     158.869
  O     -199.829      99.069     156.799
  H     -200.235     106.268     155.103
  H     -201.557      98.968     158.741
  H     -202.019     106.829     161.415
  H     -202.126     105.151     159.574
  H     -203.597     105.959     156.319
  H     -200.690     105.395     157.149
  H     -200.685     103.579     155.540
  H     -203.320     102.782     156.088
  H     -203.108     110.320     160.810
  H     -201.063     102.872     158.121
  H     -202.556     109.195     162.022
  H     -202.534     101.898     158.297
  P     -201.735     103.522     153.184
  C     -201.250     105.807     152.116
  O     -200.709     104.566     152.529
  O     -202.976     103.614     152.171
  O     -201.264     102.113     153.335
  H     -202.767     103.129     151.351
  H     -200.430     106.466     151.819
  H     -201.803     106.274     152.934
  H     -201.909     105.656     151.255
  H     -197.212     101.897     157.989
  H     -198.167     101.793     156.530
  H     -197.484     100.346     157.232

 3  4  5  6  7  8  9  10  11  12  13  21  23  27  28  29  30  32 0
 6-311+G(2d,p)
 ****
 34  35 0
 6-311+G(2d,p)
 ****
 1  2  14  15  16  17  18  19  20  22  24  25  26 0
 3-21G
 ****
 31  33  36  37  38  39  40  41  42  43  44  45  46 0
 3-21G
 ****


