%nproc=1
%NoSave
%Mem=1900MB
#P OB98/GEN NMR

erre ene a

0 1
  C      301.015      83.099    -210.106
  O      299.670      83.394    -209.727
  P      299.043      82.509    -208.542
  C      297.370      81.051    -209.887
  O      298.583      81.093    -209.149
  C      296.595      79.749    -209.640
  O      297.202      78.641    -210.364
  C      296.529      79.346    -208.166
  O      295.268      78.703    -207.952
  C      297.630      78.309    -208.045
  O      297.433      77.478    -206.903
  C      297.506      77.605    -209.404
  N      298.709      76.863    -209.779
  C      298.761      75.511    -209.426
  O      297.848      75.009    -208.764
  N      299.856      74.768    -209.788
  C      300.843      75.343    -210.407
  N      301.903      74.555    -210.742
  C      300.861      76.779    -210.749
  C      299.771      77.466    -210.411
  O      297.661      83.249    -208.216
  O      299.912      82.423    -207.330
  H      298.159      76.816    -206.876
  H      297.580      83.397    -207.256
  H      301.716      77.218    -211.246
  H      299.689      78.524    -210.622
  H      296.667      76.899    -209.399
  H      298.610      78.803    -207.951
  H      296.639      80.192    -207.477
  H      295.580      79.876    -210.035
  H      301.851      73.573    -210.496
  H      297.582      81.145    -210.956
  H      302.725      74.894    -211.219
  H      296.763      81.925    -209.622
  P      293.976      79.620    -207.719
  C      294.025      79.608    -205.150
  O      294.248      80.367    -206.321
  O      292.879      78.531    -207.287
  O      293.487      80.465    -208.848
  H      292.010      78.962    -207.181
  H      294.366      80.185    -204.288
  H      294.593      78.668    -205.190
  H      292.959      79.399    -205.034
  H      301.314      83.752    -210.899
  H      301.078      82.084    -210.438
  H      301.662      83.240    -209.265

 3  4  5  6  7  8  9  10  11  12  13  21  23  27  28  29  30  32 0
 6-311+G(2d,p)
 ****
 34  35 0
 6-311+G(2d,p)
 ****
 1  2  14  15  16  17  18  19  20  22  24  25  26 0
 3-21G
 ****
 31  33  36  37  38  39  40  41  42  43  44  45  46 0
 3-21G
 ****


