%nproc=1
%NoSave
%Mem=1900MB
#P OB98/GEN NMR

erre ene a

0 1
  C       50.195      46.476      12.576
  O       50.623      47.645      13.245
  H       50.975      45.713      12.626
  H       49.298      46.097      13.072
  H       49.954      46.696      11.532
  P       51.827      48.463      12.570
  C       51.295      50.754      13.677
  O       52.180      49.646      13.598
  C       50.156      50.458      14.654
  O       50.719      49.922      15.880
  C       49.330      51.694      15.022
  O       47.956      51.319      15.124
  C       49.864      52.080      16.392
  O       48.913      52.813      17.154
  C       50.218      50.715      16.974
  N       50.947      50.675      22.026
  C       49.853      50.446      21.270
  N       49.745      50.471      19.925
  C       50.939      50.720      19.359
  C       52.139      50.975      19.998
  C       52.116      50.956      21.402
  N       53.218      51.224      22.182
  N       53.136      51.224      19.073
  C       52.544      51.119      17.899
  N       51.217      50.820      18.022
  O       51.091      49.221      11.364
  O       52.981      47.648      12.098
  H       49.274      52.940      18.056
  H       50.972      48.604      10.617
  H       48.942      50.219      21.817
  H       53.025      51.258      16.941
  H       49.348      50.203      17.404
  H       50.761      52.700      16.277
  H       49.434      52.504      14.298
  H       49.523      49.671      14.226
  H       50.881      50.950      12.682
  H       53.099      51.244      23.181
  H       54.082      51.495      21.736
  H       51.850      51.636      14.014
  P       47.133      51.209      13.750
  C       45.563      49.305      14.543
  O       45.667      50.642      14.076
  O       47.849      49.998      12.986
  O       47.163      52.461      12.934
  H       48.063      50.260      12.072
  H       44.534      49.067      14.717
  H       46.112      49.202      15.456
  H       45.964      48.638      13.808

 6  7  8  9  10  11  12  13  14  15  25  28  32  33  34  35 0
 6-311+G(2d,p)
 ****
 36  39  40 0
 6-311+G(2d,p)
 ****
 1  2  3  4  5  16  17  18  19  20  21  22  23  24 0
 3-21G
 ****
 26  27  29  30  31  37  38  41  42  43  44  45  46  47 0
 3-21G
 ****
 48 0
 3-21G
 ****


