%nproc=1
%NoSave
%Mem=1900MB
#P OB98/GEN NMR

erre ene a

0 1
  C      702.563     -18.912     425.026
  O      702.041     -17.970     425.966
  P      700.458     -18.003     426.254
  C      700.353     -18.933     428.696
  O      700.226     -17.808     427.831
  C      701.399     -18.671     429.772
  O      702.721     -18.607     429.210
  C      701.201     -17.327     430.475
  O      700.163     -17.408     431.425
  C      702.579     -17.091     431.085
  O      702.686     -17.636     432.404
  C      703.536     -17.825     430.108
  N      704.401     -16.911     429.363
  C      705.497     -16.394     430.083
  O      705.654     -16.706     431.267
  N      706.335     -15.531     429.440
  C      706.101     -15.173     428.198
  N      706.977     -14.311     427.627
  C      704.954     -15.674     427.431
  C      704.143     -16.533     428.070
  O      700.084     -19.543     426.010
  O      699.664     -17.083     425.376
  H      703.633     -17.591     432.640
  H      699.179     -19.611     425.646
  H      704.795     -15.366     426.411
  H      703.277     -16.949     427.570
  H      704.165     -18.529     430.655
  H      702.797     -16.015     431.169
  H      700.991     -16.544     429.727
  H      701.370     -19.494     430.510
  H      707.766     -13.982     428.199
  H      700.629     -19.824     428.111
  H      706.889     -13.974     426.694
  H      699.372     -19.161     429.137
  P      699.366     -16.070     431.770
  C      697.386     -16.416     430.163
  O      697.805     -16.430     431.507
  O      699.690     -15.137     430.517
  O      699.682     -15.389     433.070
  H      699.343     -14.249     430.634
  H      696.384     -16.874     430.103
  H      698.057     -16.997     429.532
  H      697.318     -15.394     429.799
  H      703.620     -18.776     424.935
  H      702.100     -18.759     424.073
  H      702.359     -19.906     425.366

 3  4  5  6  7  8  9  10  11  12  13  21  23  27  28  29  30  32 0
 6-311+G(2d,p)
 ****
 34  35 0
 6-311+G(2d,p)
 ****
 1  2  14  15  16  17  18  19  20  22  24  25  26 0
 3-21G
 ****
 31  33  36  37  38  39  40  41  42  43  44  45  46 0
 3-21G
 ****


