%nproc=1
%NoSave
%Mem=1900MB
#P OB98/GEN NMR

erre ene a

0 1
  C       86.317     298.518      34.671
  O       87.519     297.864      35.025
  H       85.474     297.869      34.927
  H       86.294     298.716      33.594
  H       86.220     299.456      35.221
  P       88.883     298.618      34.627
  C       89.694     296.737      33.012
  O       89.877     297.416      34.245
  C       89.995     295.253      33.190
  O       89.842     294.548      31.939
  C       91.420     294.956      33.653
  O       91.604     295.169      35.042
  C       91.523     293.488      33.285
  O       90.800     292.696      34.246
  C       90.818     293.472      31.911
  N       91.742     293.646      30.788
  C       92.717     292.657      30.617
  O       92.781     291.701      31.388
  N       93.620     292.788      29.588
  C       93.551     293.812      28.793
  N       94.482     293.900      27.803
  C       92.532     294.866      28.929
  C       91.672     294.725      29.933
  O       89.463     299.113      36.036
  O       88.764     299.690      33.598
  H       90.659     291.820      33.844
  H       90.370     299.485      35.912
  H       92.523     295.709      28.249
  H       90.895     295.465      30.095
  H       90.265     292.533      31.764
  H       92.551     293.121      33.275
  H       92.158     295.516      33.069
  H       89.254     294.839      33.891
  H       95.205     293.194      27.772
  H       90.373     297.174      32.271
  H       94.617     294.740      27.256
  H       88.664     296.858      32.665
  P       92.646     296.308      35.488
  C       94.540     294.536      35.310
  O       93.931     295.558      36.089
  O       91.954     296.943      36.780
  O       92.939     297.341      34.443
  H       92.078     297.911      36.811
  H       95.378     294.134      35.841
  H       94.871     294.947      34.379
  H       93.829     293.758      35.124

 6  7  8  9  10  11  12  13  14  15  16  26  30  31  32  33  35 0
 6-311+G(2d,p)
 ****
 37  38 0
 6-311+G(2d,p)
 ****
 1  2  3  4  5  17  18  19  20  21  22  23  24  25 0
 3-21G
 ****
 27  28  29  34  36  39  40  41  42  43  44  45  46 0
 3-21G
 ****


