%nproc=1
%NoSave
%Mem=1900MB
#P OB98/GEN NMR

erre ene a

0 1
  C     1462.750      24.665     749.354
  O     1462.423      24.077     750.601
  H     1461.885      24.559     748.690
  H     1463.602      24.148     748.914
  H     1462.978      25.721     749.472
  P     1463.407      24.376     751.831
  C     1464.169      21.936     752.305
  O     1464.534      23.220     751.820
  C     1465.344      20.960     752.187
  O     1465.079      19.816     753.020
  C     1465.595      20.466     750.752
  O     1467.014      20.360     750.538
  C     1464.992      19.071     750.751
  O     1465.584      18.221     749.767
  C     1465.241      18.633     752.202
  N     1464.397      13.667     752.073
  C     1465.499      14.378     751.645
  N     1466.524      13.718     751.107
  N     1465.579      15.695     751.755
  C     1464.500      16.253     752.346
  C     1463.356      15.639     752.800
  C     1463.266      14.207     752.663
  O     1462.319      13.508     753.002
  N     1462.486      16.549     753.323
  C     1463.059      17.714     753.176
  N     1464.309      17.583     752.602
  O     1462.519      24.012     753.106
  O     1463.922      25.768     751.906
  H     1465.174      17.333     749.885
  H     1462.347      24.821     753.635
  H     1464.384      12.663     751.963
  H     1462.667      18.672     753.469
  H     1466.246      18.231     752.339
  H     1463.906      19.145     750.540
  H     1466.540      12.704     751.042
  H     1465.153      21.113     749.992
  H     1467.356      14.220     750.824
  H     1466.247      21.451     752.593
  H     1463.319      21.566     751.704
  H     1463.856      22.015     753.345
  P     1467.671      21.462     749.580
  C     1467.885      20.092     747.402
  O     1467.237      21.154     748.071
  O     1469.231      21.099     749.589
  O     1467.454      22.889     749.999
  H     1469.718      21.753     750.138
  H     1467.495      20.005     746.410
  H     1467.715      19.179     747.934
  H     1468.936      20.288     747.356

 6  7  8  9  10  11  12  13  14  15  26  29  33  34 0
 6-311+G(2d,p)
 ****
 36  38  39  40  41 0
 6-311+G(2d,p)
 ****
 1  2  3  4  5  16  17  18  19  20  21  22  23  24  25 0
 3-21G
 ****
 27  28  30  31  32  35  37  42  43  44  45  46  47 0
 3-21G
 ****
 48  49 0
 3-21G
 ****


