%nproc=1
%NoSave
%Mem=1900MB
#P OB98/GEN NMR

erre ene a

0 1
  C     -402.245     169.500    -241.684
  O     -400.908     169.063    -241.534
  P     -400.004     168.752    -242.825
  C     -400.204     166.933    -244.646
  O     -400.410     167.259    -243.280
  C     -400.751     165.541    -244.965
  O     -402.097     165.403    -244.470
  C     -400.823     165.227    -246.452
  O     -399.533     164.903    -246.953
  C     -401.807     164.067    -246.458
  O     -401.162     162.821    -246.146
  C     -402.789     164.471    -245.333
  N     -404.029     165.031    -245.851
  C     -405.156     164.203    -245.766
  O     -405.053     163.058    -245.316
  N     -406.355     164.666    -246.259
  C     -406.422     165.852    -246.794
  N     -407.629     166.250    -247.257
  C     -405.247     166.740    -246.919
  C     -404.097     166.274    -246.436
  O     -398.545     168.996    -242.656
  O     -400.674     169.656    -243.966
  H     -400.745     162.950    -245.267
  H     -400.456     170.614    -243.843
  H     -405.344     167.715    -247.383
  H     -403.189     166.864    -246.496
  H     -403.037     163.604    -244.709
  H     -402.293     163.943    -247.435
  H     -401.243     166.078    -246.995
  H     -400.119     164.800    -244.449
  H     -408.397     165.595    -247.174
  H     -399.130     166.951    -244.851
  H     -407.781     167.131    -247.728
  H     -400.688     167.693    -245.277
  P     -399.350     164.517    -248.493
  C     -400.901     163.216    -250.066
  O     -400.278     163.253    -248.798
  O     -397.937     164.407    -248.967
  O     -400.105     165.708    -249.267
  H     -399.556     165.998    -250.020
  H     -401.210     162.187    -250.274
  H     -400.215     163.543    -250.848
  H     -401.786     163.857    -250.058
  H     -402.680     169.654    -240.719
  H     -402.805     168.758    -242.214
  H     -402.261     170.419    -242.233

 3  4  5  6  7  8  9  10  11  12  13  23  27  28  29  30  32 0
 6-311+G(2d,p)
 ****
 34  35 0
 6-311+G(2d,p)
 ****
 1  2  14  15  16  17  18  19  20  21  22  24  25  26 0
 3-21G
 ****
 31  33  36  37  38  39  40  41  42  43  44  45  46 0
 3-21G
 ****


