%nproc=1
%NoSave
%Mem=1900MB
#P OB98/GEN NMR

erre ene a

0 1
  C      898.507     184.680    -673.378
  O      897.220     184.453    -672.835
  H      899.233     184.074    -672.828
  H      898.790     185.734    -673.281
  H      898.536     184.383    -674.429
  P      895.995     185.323    -673.401
  C      896.062     186.702    -671.211
  O      896.036     186.732    -672.632
  C      896.187     188.119    -670.641
  O      894.847     188.692    -670.530
  C      896.818     188.173    -669.239
  O      897.500     189.439    -669.130
  C      895.590     188.137    -668.344
  O      895.911     188.501    -667.027
  C      894.657     189.049    -669.140
  N      893.266     188.918    -668.730
  C      892.923     189.524    -667.518
  O      893.775     190.126    -666.849
  N      891.626     189.421    -667.069
  C      890.774     188.702    -667.742
  N      889.521     188.625    -667.233
  C      891.117     187.993    -668.993
  C      892.371     188.145    -669.421
  O      894.666     184.641    -673.397
  O      896.452     185.707    -674.889
  H      896.166     189.444    -666.982
  H      895.960     185.165    -675.530
  H      890.376     187.391    -669.497
  H      892.712     187.667    -670.328
  H      894.951     190.104    -669.037
  H      895.184     187.129    -668.303
  H      897.523     187.350    -669.069
  H      896.739     188.738    -671.355
  H      889.328     189.108    -666.365
  H      896.923     186.109    -670.907
  H      888.784     188.076    -667.651
  H      895.155     186.223    -670.828
  P      898.954     189.691    -669.749
  C      900.131     189.183    -667.507
  O      900.053     188.877    -668.898
  O      899.279     191.138    -669.938
  O      898.953     188.929    -671.158
  H      899.531     189.409    -671.778
  H      900.891     188.583    -667.052
  H      899.189     188.977    -667.043
  H      900.371     190.218    -667.382

 6  7  8  9  10  11  12  13  14  15  16  26  30  31  32  33  35 0
 6-311+G(2d,p)
 ****
 37  38 0
 6-311+G(2d,p)
 ****
 1  2  3  4  5  17  18  19  20  21  22  23  24  25 0
 3-21G
 ****
 27  28  29  34  36  39  40  41  42  43  44  45  46 0
 3-21G
 ****


