%nproc=1
%NoSave
%Mem=1900MB
#P OB98/GEN NMR

erre ene a

0 1
  C      148.615     -94.143     -42.991
  O      147.600     -94.333     -42.023
  P      146.113     -94.714     -42.475
  C      144.149     -93.580     -43.688
  O      145.403     -93.390     -43.039
  C      143.378     -92.264     -43.754
  O      142.961     -91.845     -42.434
  C      144.188     -91.098     -44.299
  O      144.387     -91.196     -45.696
  C      143.334     -89.917     -43.851
  O      142.229     -89.717     -44.744
  C      142.833     -90.402     -42.474
  N      143.543     -89.775     -41.371
  C      143.407     -88.386     -41.263
  O      142.786     -87.752     -42.115
  N      143.990     -87.755     -40.191
  C      144.741     -88.426     -39.376
  N      145.242     -87.760     -38.301
  C      145.040     -89.862     -39.553
  C      144.396     -90.472     -40.547
  O      145.315     -95.470     -41.466
  O      146.323     -95.590     -43.800
  H      145.806     -96.415     -43.718
  H      141.786     -88.894     -44.458
  H      145.728     -90.361     -38.885
  H      144.536     -91.531     -40.737
  H      141.761     -90.196     -42.368
  H      143.901     -88.980     -43.822
  H      145.160     -91.057     -43.794
  H      142.479     -92.427     -44.364
  H      145.000     -86.780     -38.203
  H      143.572     -94.317     -43.123
  H      145.552     -88.238     -37.460
  H      144.322     -93.977     -44.694
  P      145.862     -90.876     -46.242
  C      147.602     -89.001     -45.850
  O      146.256     -89.412     -45.731
  O      145.636     -90.681     -47.818
  O      146.872     -91.942     -45.967
  H      146.401     -91.038     -48.305
  H      147.643     -87.910     -45.794
  H      148.037     -89.323     -46.800
  H      148.186     -89.416     -45.023
  H      149.534     -93.896     -42.501
  H      148.336     -93.346     -43.649
  H      148.743     -95.043     -43.555

 3  4  5  6  7  8  9  10  11  12  13  24  27  28  29  30  32 0
 6-311+G(2d,p)
 ****
 34  35 0
 6-311+G(2d,p)
 ****
 1  2  14  15  16  17  18  19  20  21  22  23  25  26 0
 3-21G
 ****
 31  33  36  37  38  39  40  41  42  43  44  45  46 0
 3-21G
 ****


