%nproc=1
%NoSave
%Mem=1900MB
#P OB98/GEN NMR

erre ene a

0 1
  C      104.726      25.437      29.250
  O      103.396      25.338      29.729
  P      102.300      26.442      29.336
  C      101.568      28.701      30.326
  O      102.611      27.736      30.233
  C      102.043      29.941      31.079
  O      103.392      30.256      30.659
  C      101.185      31.174      30.824
  O      101.106      31.942      32.031
  C      101.970      31.974      29.801
  O      101.652      33.375      29.879
  C      103.411      31.613      30.176
  N      108.167      32.788      28.634
  C      107.596      32.780      29.858
  N      106.320      32.483      30.193
  C      105.625      32.111      29.105
  C      106.071      32.063      27.793
  C      107.412      32.428      27.572
  N      107.994      32.422      26.320
  N      105.056      31.663      26.945
  C      104.027      31.452      27.733
  N      104.320      31.699      29.049
  O      100.887      25.976      29.391
  O      102.714      26.911      27.866
  H      102.047      33.714      30.707
  H      101.918      27.069      27.321
  H      108.251      33.054      30.683
  H      103.047      31.134      27.406
  H      103.792      32.256      30.981
  H      101.718      31.628      28.791
  H      100.178      30.926      30.474
  H      102.080      29.705      32.153
  H      100.730      28.249      30.866
  H      108.988      32.579      26.274
  H      107.487      31.990      25.560
  H      101.229      28.969      29.317
  P       99.635      32.459      32.440
  C       97.920      34.022      31.260
  O       99.203      33.438      31.248
  O       99.603      33.012      33.826
  O       98.768      31.127      32.231
  H       99.190      30.521      31.585
  H       97.797      34.621      30.353
  H       97.813      34.684      32.127
  H       97.146      33.252      31.285
  H      105.300      24.613      29.619
  H      105.160      26.354      29.589
  H      104.722      25.418      28.180

 3  4  5  6  7  8  9  10  11  12  22  25  29  30  31  32 0
 6-311+G(2d,p)
 ****
 33  36  37 0
 6-311+G(2d,p)
 ****
 1  2  13  14  15  16  17  18  19  20  21  23  24  26 0
 3-21G
 ****
 27  28  34  35  38  39  40  41  42  43  44  45  46  47  48 0
 3-21G
 ****


