%nproc=1
%NoSave
%Mem=1900MB
#P OB98/GEN NMR

erre ene a

0 1
  C      235.923     135.898      61.851
  O      235.692     134.520      61.540
  P      236.197     133.993      60.111
  C      235.347     134.109      57.652
  O      235.039     134.252      59.035
  C      234.245     133.313      56.948
  O      234.178     131.963      57.444
  C      232.857     133.889      57.164
  O      232.648     135.018      56.338
  C      231.962     132.702      56.826
  O      231.616     132.680      55.430
  C      232.843     131.484      57.191
  N      232.327     130.739      58.324
  C      231.157     130.009      58.091
  O      230.612     130.037      56.984
  N      230.620     129.282      59.124
  C      231.186     129.306      60.291
  N      230.604     128.569      61.277
  C      232.407     130.085      60.586
  C      232.917     130.770      59.565
  O      236.190     132.403      60.286
  O      237.549     134.499      59.721
  H      231.179     133.539      55.252
  H      236.904     132.001      59.757
  H      232.836     130.080      61.576
  H      233.812     131.374      59.691
  H      232.918     130.797      56.339
  H      231.022     132.736      57.381
  H      232.724     134.161      58.223
  H      234.471     133.280      55.872
  H      229.769     128.050      61.041
  H      236.307     133.606      57.527
  H      230.957     128.522      62.222
  H      235.456     135.107      57.210
  P      232.432     136.435      57.051
  C      230.476     137.512      58.321
  O      230.886     136.450      57.480
  O      232.431     137.441      55.804
  O      233.416     136.837      58.094
  H      232.397     138.365      56.113
  H      229.384     137.526      58.366
  H      230.821     138.471      57.922
  H      230.868     137.363      59.330
  H      235.539     136.113      62.826
  H      235.428     136.514      61.130
  H      236.974     136.097      61.830

 3  4  5  6  7  8  9  10  11  12  13  21  23  27  28  29  30  32 0
 6-311+G(2d,p)
 ****
 34  35 0
 6-311+G(2d,p)
 ****
 1  2  14  15  16  17  18  19  20  22  24  25  26 0
 3-21G
 ****
 31  33  36  37  38  39  40  41  42  43  44  45  46 0
 3-21G
 ****


