%nproc=1
%NoSave
%Mem=1900MB
#P OB98/GEN NMR

erre ene a

0 1
  C      830.906    -892.180     706.384
  O      829.879    -893.150     706.273
  H      831.846    -892.630     706.080
  H      830.995    -891.850     707.429
  H      830.701    -891.330     705.734
  P      828.359    -892.710     706.505
  C      827.924    -892.170     704.023
  O      827.574    -892.980     705.125
  C      827.713    -892.930     702.712
  O      828.787    -893.890     702.504
  C      826.430    -893.770     702.701
  O      825.284    -892.950     702.497
  C      826.740    -894.740     701.560
  O      826.471    -894.140     700.289
  C      828.271    -894.990     701.750
  N      828.524    -896.280     702.397
  C      829.562    -897.020     701.884
  O      830.259    -896.670     700.935
  N      829.765    -898.250     702.460
  C      828.920    -898.830     703.404
  O      828.990    -900.000     703.712
  C      827.886    -897.950     703.959
  C      827.735    -896.740     703.432
  O      828.168    -891.350     707.085
  O      827.770    -893.840     707.471
  H      827.744    -893.500     708.378
  H      825.590    -893.740     700.346
  H      830.476    -898.830     702.063
  H      827.261    -898.340     704.733
  H      826.930    -896.070     703.805
  H      828.770    -894.980     700.762
  H      826.138    -895.650     701.623
  H      826.346    -894.330     703.638
  H      827.722    -892.220     701.873
  H      828.989    -891.890     704.111
  H      827.331    -891.250     704.027
  P      823.859    -893.440     703.105
  C      824.057    -892.210     705.348
  O      823.340    -892.320     704.111
  O      823.822    -894.830     703.622
  O      822.869    -893.260     701.836
  H      822.361    -894.080     701.721
  H      823.626    -891.432     705.942
  H      825.082    -891.979     705.147
  H      823.998    -893.138     705.878

 6  7  8  9  10  11  12  13  14  15  16  27  31  32  33  34  35 0
 6-311+G(2d,p)
 ****
 36  37 0
 6-311+G(2d,p)
 ****
 1  2  3  4  5  17  18  19  20  21  22  23  24  25 0
 3-21G
 ****
 26  28  29  30  38  39  40  41  42  43  44  45 0
 3-21G
 ****


