%nproc=1
%NoSave
%Mem=1900MB
#P OB98/GEN NMR

erre ene a

0 1
  C      100.936    -207.475      60.262
  O      100.381    -208.543      61.032
  P       99.266    -209.488      60.381
  C       99.376    -210.706      58.101
  O       99.967    -210.529      59.384
  C       99.868    -212.013      57.474
  O      101.315    -212.088      57.466
  C       99.423    -213.248      58.248
  O       98.047    -213.561      58.209
  C      100.393    -214.308      57.754
  O       99.969    -214.871      56.514
  C      101.686    -213.480      57.562
  N      102.659    -213.698      58.632
  C      103.161    -214.991      58.749
  O      102.792    -215.925      58.040
  N      104.082    -215.184      59.744
  C      104.514    -214.243      60.632
  O      105.324    -214.478      61.519
  C      103.931    -212.901      60.473
  C      103.045    -212.692      59.497
  O       98.066    -208.792      59.834
  O       98.843    -210.432      61.614
  H       99.061    -215.203      56.639
  H       97.874    -210.545      61.584
  H      104.461    -216.114      59.838
  H      104.246    -212.131      61.163
  H      102.604    -211.710      59.362
  H      102.170    -213.741      56.612
  H      100.484    -215.134      58.465
  H       99.656    -213.079      59.310
  H       99.531    -212.050      56.436
  H       99.627    -209.860      57.459
  H       98.286    -210.702      58.209
  P       97.061    -213.354      59.457
  C       95.574    -211.312      60.042
  O       95.971    -212.247      59.062
  O       97.680    -213.252      60.810
  O       96.189    -214.705      59.397
  H       95.949    -214.956      60.309
  H       94.820    -210.650      59.606
  H       96.426    -210.708      60.362
  H       95.133    -211.824      60.902
  H      101.661    -206.951      60.849
  H      100.157    -206.801      59.973
  H      101.406    -207.873      59.387

 3  4  5  6  7  8  9  10  11  12  13  23  28  29  30  31  32 0
 6-311+G(2d,p)
 ****
 33  34 0
 6-311+G(2d,p)
 ****
 1  2  14  15  16  17  18  19  20  21  22  24  25  26  27 0
 3-21G
 ****
 35  36  37  38  39  40  41  42  43  44  45 0
 3-21G
 ****


