%nproc=1
%NoSave
%Mem=1900MB
#P OB98/GEN NMR

erre ene a

0 1
  C     -980.064     111.056     312.358
  O     -980.385     112.071     313.320
  P     -981.886     112.654     313.370
  C     -982.430     111.884     315.816
  O     -982.263     112.961     314.903
  C     -982.728     112.421     317.214
  O     -981.514     112.873     317.857
  C     -983.664     113.625     317.244
  O     -985.019     113.240     317.044
  C     -983.392     114.180     318.644
  O     -984.149     113.474     319.633
  C     -981.883     113.905     318.802
  N     -981.074     115.106     318.637
  C     -980.696     115.758     319.796
  O     -981.056     115.423     320.919
  N     -979.904     116.870     319.620
  C     -979.524     117.409     318.420
  O     -978.838     118.417     318.325
  C     -980.028     116.717     317.225
  C     -980.772     115.622     317.382
  O     -982.763     111.346     313.072
  O     -982.194     113.737     312.396
  H     -985.078     113.460     319.329
  H     -983.602     111.602     312.653
  H     -979.597     117.353     320.449
  H     -979.777     117.126     316.259
  H     -981.154     115.089     316.511
  H     -981.686     113.477     319.799
  H     -983.662     115.244     318.721
  H     -983.359     114.356     316.496
  H     -983.138     111.590     317.816
  H     -981.517     111.286     315.846
  H     -983.251     111.244     315.460
  P     -986.003     114.365     316.454
  C     -987.697     112.657     315.409
  O     -987.445     113.658     316.374
  O     -985.496     114.438     314.932
  O     -985.934     115.649     317.197
  H     -985.196     113.578     314.603
  H     -986.803     112.064     315.204
  H     -988.040     113.123     314.476
  H     -988.482     111.998     315.786
  H     -979.035     110.782     312.458
  H     -980.239     111.432     311.371
  H     -980.680     110.197     312.527

 3  4  5  6  7  8  9  10  11  12  13  23  28  29  30  31  32 0
 6-311+G(2d,p)
 ****
 33  34 0
 6-311+G(2d,p)
 ****
 1  2  14  15  16  17  18  19  20  21  22  24  25  26 0
 3-21G
 ****
 27  35  36  37  38  39  40  41  42  43  44  45 0
 3-21G
 ****


