%nproc=1
%NoSave
%Mem=1900MB
#P OB98/GEN NMR

erre ene a

0 1
  C      -76.739     209.058    -136.003
  O      -76.340     208.256    -134.908
  H      -77.679     209.555    -135.750
  H      -76.898     208.435    -136.888
  H      -75.980     209.817    -136.212
  P      -75.003     207.391    -135.112
  C      -75.887     204.984    -134.721
  O      -75.165     206.086    -134.189
  C      -76.393     204.083    -133.598
  O      -75.290     203.454    -132.911
  C      -77.219     204.804    -132.538
  O      -78.570     204.937    -132.949
  C      -77.054     203.871    -131.347
  O      -77.943     202.737    -131.453
  C      -75.589     203.427    -131.486
  N      -71.901     203.356    -128.036
  C      -72.727     202.342    -128.481
  N      -72.566     201.130    -127.904
  N      -73.639     202.498    -129.404
  C      -73.730     203.772    -129.855
  C      -72.973     204.865    -129.492
  C      -71.929     204.663    -128.508
  O      -71.111     205.502    -128.133
  N      -73.353     205.985    -130.185
  C      -74.360     205.578    -130.937
  N      -74.629     204.244    -130.768
  O      -73.885     208.247    -134.346
  O      -74.612     207.138    -136.529
  H      -78.863     203.055    -131.484
  H      -73.050     208.193    -134.850
  H      -71.193     203.170    -127.348
  H      -74.915     206.203    -131.627
  H      -75.441     202.395    -131.145
  H      -77.299     204.368    -130.409
  H      -72.101     201.020    -127.012
  H      -76.781     205.781    -132.295
  H      -73.221     200.408    -128.178
  H      -76.983     203.278    -134.059
  H      -75.223     204.411    -135.375
  H      -76.734     205.356    -135.309
  P      -79.346     206.287    -132.574
  C      -81.142     205.266    -130.997
  O      -80.870     205.904    -132.238
  O      -79.454     207.041    -133.985
  O      -78.661     207.142    -131.562
  H      -78.816     207.780    -134.012
  H      -82.192     205.075    -130.917
  H      -80.833     205.902    -130.194
  H      -80.606     204.341    -130.947

 6  7  8  9  10  11  12  13  14  15  26  29  33  34 0
 6-311+G(2d,p)
 ****
 36  38  39  40  41 0
 6-311+G(2d,p)
 ****
 1  2  3  4  5  16  17  18  19  20  21  22  23  24  25 0
 3-21G
 ****
 27  28  30  31  32  35  37  42  43  44  45  46  47 0
 3-21G
 ****
 48  49 0
 3-21G
 ****


