%nproc=1
%NoSave
%Mem=1900MB
#P OB98/GEN NMR

erre ene a

0 1
  C     -381.488    -190.251     104.540
  O     -380.555    -191.336     104.538
  P     -380.576    -192.486     103.417
  C     -378.100    -192.116     102.824
  O     -379.436    -192.164     102.333
  C     -377.127    -191.530     101.782
  O     -377.566    -190.196     101.381
  C     -375.689    -191.370     102.269
  O     -375.013    -192.611     102.211
  C     -375.169    -190.311     101.287
  O     -374.798    -190.910     100.038
  C     -376.393    -189.396     101.121
  N     -376.482    -184.287     101.167
  C     -376.559    -185.180     100.158
  N     -376.521    -186.538     100.230
  C     -376.413    -186.940     101.511
  C     -376.320    -186.147     102.640
  C     -376.353    -184.756     102.441
  N     -376.259    -183.849     103.471
  N     -376.198    -186.935     103.776
  C     -376.243    -188.168     103.326
  N     -376.370    -188.227     101.965
  O     -381.928    -192.742     102.824
  O     -380.026    -193.791     104.163
  H     -375.527    -191.490      99.773
  H     -380.392    -194.589     103.740
  H     -376.665    -184.755      99.170
  H     -376.176    -189.055     103.961
  H     -376.479    -189.048     100.076
  H     -374.292    -189.786     101.670
  H     -375.684    -190.959     103.286
  H     -377.170    -192.155     100.887
  H     -377.780    -193.143     103.061
  H     -376.256    -182.869     103.250
  H     -376.113    -184.180     104.417
  H     -378.076    -191.516     103.733
  P     -374.902    -193.520     103.536
  C     -376.112    -195.466     102.370
  O     -376.110    -194.591     103.468
  O     -374.796    -192.772     104.830
  O     -373.625    -194.423     103.277
  H     -373.207    -194.644     104.136
  H     -376.499    -194.961     101.487
  H     -376.733    -196.330     102.601
  H     -375.089    -195.814     102.149
  H     -381.288    -189.610     105.373
  H     -382.483    -190.636     104.617
  H     -381.390    -189.695     103.631

 3  4  5  6  7  8  9  10  11  12  22  25  29  30  31  32 0
 6-311+G(2d,p)
 ****
 33  36  37 0
 6-311+G(2d,p)
 ****
 1  2  13  14  15  16  17  18  19  20  21  23  24  26 0
 3-21G
 ****
 27  28  34  35  38  39  40  41  42  43  44  45  46  47  48 0
 3-21G
 ****


