%nproc=1
%NoSave
%Mem=1900MB
#P OB98/GEN NMR

erre ene a

0 1
  C       68.492    -344.189     188.415
  O       69.567    -344.852     187.740
  P       69.747    -346.425     188.002
  C       68.320    -347.503     186.109
  O       68.429    -347.178     187.489
  C       68.092    -349.004     185.936
  O       66.850    -349.417     186.539
  C       67.989    -349.434     184.480
  O       69.272    -349.501     183.889
  C       67.290    -350.783     184.595
  O       68.230    -351.859     184.733
  C       66.440    -350.626     185.878
  N       65.012    -350.625     185.610
  C       64.192    -351.106     186.639
  O       64.694    -351.519     187.685
  N       62.836    -351.129     186.442
  C       62.339    -350.732     185.308
  N       60.991    -350.785     185.171
  C       63.170    -350.243     184.188
  C       64.484    -350.219     184.405
  O       69.651    -346.545     189.592
  O       71.035    -346.978     187.485
  H       68.983    -351.485     185.240
  H       70.212    -347.268     189.912
  H       62.713    -349.935     183.262
  H       65.174    -349.875     183.639
  H       66.649    -351.451     186.573
  H       66.689    -350.996     183.701
  H       67.349    -348.728     183.927
  H       68.917    -349.541     186.426
  H       60.453    -351.125     185.960
  H       69.225    -347.200     185.577
  H       60.500    -350.507     184.333
  H       67.491    -346.927     185.677
  P       69.446    -348.926     182.408
  C       70.470    -346.752     183.313
  O       69.413    -347.327     182.579
  O       68.003    -349.215     181.767
  O       70.552    -349.485     181.578
  H       68.009    -348.993     180.817
  H       70.447    -345.668     183.179
  H       71.438    -347.131     182.962
  H       70.347    -346.974     184.378
  H       68.490    -343.152     188.150
  H       68.621    -344.287     189.473
  H       67.562    -344.632     188.126

 3  4  5  6  7  8  9  10  11  12  13  21  23  27  28  29  30  32 0
 6-311+G(2d,p)
 ****
 34  35 0
 6-311+G(2d,p)
 ****
 1  2  14  15  16  17  18  19  20  22  24  25  26 0
 3-21G
 ****
 31  33  36  37  38  39  40  41  42  43  44  45  46 0
 3-21G
 ****


