%nproc=1
%NoSave
%Mem=1900MB
#P OB98/GEN NMR

erre ene a

0 1
  C      261.437     640.118    -279.160
  O      260.580     639.378    -280.004
  H      261.766     639.504    -278.321
  H      262.314     640.428    -279.736
  H      260.925     641.014    -278.791
  P      259.236     638.799    -279.340
  C      259.409     636.815    -281.016
  O      258.597     637.838    -280.456
  C      258.774     636.317    -282.310
  O      257.397     635.947    -282.076
  C      258.741     637.365    -283.419
  O      259.972     637.454    -284.121
  C      257.638     636.803    -284.305
  O      258.147     635.701    -285.074
  C      256.621     636.306    -283.262
  N      252.288     638.625    -284.685
  C      253.007     637.626    -285.249
  N      254.137     637.052    -284.795
  C      254.521     637.602    -283.631
  C      253.882     638.619    -282.934
  C      252.711     639.150    -283.514
  N      251.998     640.188    -282.957
  N      254.585     638.930    -281.786
  C      255.611     638.099    -281.784
  N      255.630     637.298    -282.895
  O      258.243     640.054    -279.329
  O      259.393     638.166    -277.997
  H      257.419     635.387    -285.647
  H      257.479     639.881    -278.751
  H      252.618     637.244    -286.189
  H      256.365     638.044    -281.008
  H      256.083     635.406    -283.590
  H      257.252     637.539    -285.015
  H      258.427     638.343    -283.039
  H      259.308     635.417    -282.634
  H      259.483     635.986    -280.305
  H      251.267     640.591    -283.523
  H      252.388     640.675    -282.168
  H      260.407     637.209    -281.218
  P      260.644     638.910    -284.254
  C      259.863     639.119    -286.718
  O      260.960     639.121    -285.811
  O      262.095     638.685    -283.611
  O      259.887     640.005    -283.580
  H      262.412     639.500    -283.172
  H      260.224     639.269    -287.714
  H      259.186     639.907    -286.461
  H      259.355     638.179    -286.661

 6  7  8  9  10  11  12  13  14  15  25  28  32  33  34  35 0
 6-311+G(2d,p)
 ****
 36  39  40 0
 6-311+G(2d,p)
 ****
 1  2  3  4  5  16  17  18  19  20  21  22  23  24 0
 3-21G
 ****
 26  27  29  30  31  37  38  41  42  43  44  45  46  47 0
 3-21G
 ****
 48 0
 3-21G
 ****


