%nproc=1
%NoSave
%Mem=1900MB
#P OB98/GEN NMR

erre ene a

0 1
  C     -898.950    -901.756    1676.905
  O     -898.240    -901.023    1677.912
  P     -898.560    -901.235    1679.502
  C     -896.380    -902.335    1680.439
  O     -897.710    -902.510    1680.016
  C     -895.410    -903.146    1679.604
  O     -895.280    -902.574    1678.253
  C     -893.960    -903.252    1680.079
  O     -893.850    -904.115    1681.223
  C     -893.240    -903.754    1678.826
  O     -893.310    -905.174    1678.729
  C     -894.030    -903.084    1677.687
  N     -893.290    -902.045    1677.006
  C     -893.020    -902.261    1675.647
  O     -893.340    -903.312    1675.078
  N     -892.380    -901.248    1674.965
  C     -891.970    -900.209    1675.536
  N     -891.340    -899.191    1674.794
  C     -892.110    -899.970    1677.052
  C     -892.770    -900.910    1677.662
  O     -900.000    -901.263    1679.835
  O     -897.810    -899.957    1680.188
  H     -898.270    -899.773    1681.031
  H     -894.260    -905.395    1678.636
  H     -891.740    -899.108    1677.523
  H     -892.910    -900.890    1678.763
  H     -894.340    -903.856    1676.946
  H     -892.160    -903.518    1678.884
  H     -893.600    -902.214    1680.370
  H     -895.830    -904.202    1679.464
  H     -891.280    -899.404    1673.771
  H     -896.270    -902.636    1681.469
  H     -891.010    -898.360    1675.195
  H     -896.100    -901.231    1680.360
  P     -893.780    -903.371    1682.673
  C     -896.030    -904.012    1683.888
  O     -895.350    -903.080    1683.127
  O     -893.170    -901.914    1682.378
  O     -892.990    -904.115    1683.713
  H     -892.530    -901.622    1683.086
  H     -896.760    -903.473    1684.491
  H     -895.350    -904.528    1684.604
  H     -896.480    -904.735    1683.277
  H     -898.592    -901.472    1675.938
  H     -899.995    -901.539    1676.976
  H     -898.793    -902.804    1677.050

 3  4  5  6  7  8  9  10  11  12  13  24  27  28  29  30  32 0
 6-311+G(2d,p)
 ****
 34  35 0
 6-311+G(2d,p)
 ****
 1  2  14  15  16  17  18  19  20  21  22  23  25  26 0
 3-21G
 ****
 31  33  36  37  38  39  40  41  42  43  44  45  46 0
 3-21G
 ****


