%nproc=1
%NoSave
%Mem=1900MB
#P OB98/GEN NMR

erre ene a

0 1
  C      236.626     302.936    -565.797
  O      237.858     303.527    -566.170
  H      236.770     301.856    -565.722
  H      235.860     303.139    -566.549
  H      236.302     303.313    -564.821
  P      237.905     305.113    -566.386
  C      238.625     304.635    -568.822
  O      238.890     305.364    -567.628
  C      239.940     304.167    -569.456
  O      240.812     305.286    -569.695
  C      240.736     303.180    -568.594
  O      240.221     301.866    -568.739
  C      242.117     303.336    -569.208
  O      242.178     302.625    -570.462
  C      242.174     304.854    -569.467
  N      246.427     306.308    -567.095
  C      246.248     305.389    -568.108
  N      247.352     304.736    -568.524
  N      245.090     305.116    -568.647
  C      244.068     305.786    -568.083
  C      244.112     306.718    -567.067
  C      245.408     307.052    -566.522
  O      245.610     307.890    -565.646
  N      242.853     307.128    -566.697
  C      242.052     306.486    -567.522
  N      242.734     305.649    -568.381
  O      238.233     305.935    -565.177
  O      236.466     305.474    -566.988
  H      241.574     303.077    -571.083
  H      235.837     305.713    -566.281
  H      247.342     306.473    -566.710
  H      240.967     306.583    -567.549
  H      242.758     305.094    -570.364
  H      242.905     302.938    -568.572
  H      248.240     304.787    -568.046
  H      240.773     303.498    -567.549
  H      247.235     304.009    -569.226
  H      239.699     303.720    -570.437
  H      238.092     305.302    -569.507
  H      237.997     303.766    -568.603
  P      239.481     301.113    -567.523
  C      241.529     299.766    -566.702
  O      240.269     299.725    -567.342
  O      238.003     300.981    -567.676
  O      239.940     301.931    -566.226
  H      239.377     302.723    -566.043
  H      241.935     298.778    -566.651
  H      241.414     300.156    -565.712
  H      242.191     300.396    -567.258

 6  7  8  9  10  11  12  13  14  15  26  29  33  34 0
 6-311+G(2d,p)
 ****
 36  38  39  40  41 0
 6-311+G(2d,p)
 ****
 1  2  3  4  5  16  17  18  19  20  21  22  23  24  25 0
 3-21G
 ****
 27  28  30  31  32  35  37  42  43  44  45  46  47 0
 3-21G
 ****
 48  49 0
 3-21G
 ****


