%nproc=1
%NoSave
%Mem=1900MB
#P OB98/GEN NMR

erre ene a

0 1
  C     -245.196     574.738    -246.477
  O     -244.757     576.106    -246.543
  P     -244.146     576.896    -245.293
  C     -241.713     576.112    -245.632
  O     -242.595     577.221    -245.567
  C     -240.238     576.558    -245.671
  O     -239.832     576.831    -247.048
  C     -239.934     577.821    -244.846
  O     -238.654     577.618    -244.242
  C     -239.879     578.899    -245.925
  O     -239.216     580.082    -245.517
  C     -239.166     578.115    -247.034
  N     -239.205     578.725    -248.362
  C     -238.296     579.760    -248.631
  O     -237.532     580.181    -247.762
  N     -238.291     580.315    -249.893
  C     -239.117     579.893    -250.797
  N     -239.056     580.471    -252.024
  C     -240.101     578.819    -250.551
  C     -240.088     578.286    -249.334
  O     -244.382     576.220    -243.971
  O     -244.848     578.342    -245.309
  H     -244.997     578.643    -244.386
  H     -239.368     580.766    -246.205
  H     -240.762     578.492    -251.336
  H     -240.759     577.471    -249.086
  H     -238.129     577.935    -246.746
  H     -240.906     579.171    -246.207
  H     -240.671     578.021    -244.062
  H     -239.623     575.717    -245.321
  H     -238.352     581.207    -252.159
  H     -241.931     575.547    -246.548
  H     -239.637     580.217    -252.800
  H     -241.889     575.459    -244.766
  P     -238.553     577.354    -242.658
  C     -239.338     575.093    -241.647
  O     -238.389     575.777    -242.433
  O     -240.064     577.607    -242.185
  O     -237.630     578.252    -241.893
  H     -240.075     577.867    -241.249
  H     -239.616     574.156    -242.154
  H     -240.253     575.675    -241.484
  H     -238.891     574.840    -240.673
  H     -245.563     574.435    -247.435
  H     -245.977     574.649    -245.751
  H     -244.374     574.113    -246.196

 3  4  5  6  7  8  9  10  11  12  13  24  27  28  29  30  32 0
 6-311+G(2d,p)
 ****
 34  35 0
 6-311+G(2d,p)
 ****
 1  2  14  15  16  17  18  19  20  21  22  23  25  26 0
 3-21G
 ****
 31  33  36  37  38  39  40  41  42  43  44  45  46 0
 3-21G
 ****


