%nproc=1
%NoSave
%Mem=1900MB
#P OB98/GEN NMR

erre ene a

0 1
  C      -44.286      47.564     139.347
  O      -45.610      47.203     139.009
  H      -43.812      46.722     139.859
  H      -44.291      48.426     140.020
  H      -43.713      47.797     138.446
  P      -46.471      48.294     138.207
  C      -47.947      50.297     138.964
  O      -46.864      49.428     139.273
  C      -47.716      51.660     139.610
  O      -46.349      52.073     139.385
  C      -48.581      52.778     139.040
  O      -49.895      52.752     139.566
  C      -47.786      54.009     139.454
  O      -48.076      54.395     140.804
  C      -46.335      53.518     139.352
  N      -44.372      57.605     137.024
  C      -44.892      57.431     138.259
  N      -45.378      56.299     138.812
  C      -45.281      55.273     137.949
  C      -44.782      55.300     136.658
  C      -44.306      56.537     136.193
  N      -43.811      56.723     134.924
  N      -44.894      54.056     136.070
  C      -45.440      53.290     136.992
  N      -45.685      53.982     138.144
  O      -47.854      47.530     137.939
  O      -45.852      48.792     136.945
  H      -47.408      55.061     141.054
  H      -47.834      47.119     137.055
  H      -44.925      58.319     138.884
  H      -45.683      52.241     136.871
  H      -45.724      53.854     140.199
  H      -48.014      54.864     138.817
  H      -48.600      52.722     137.944
  H      -47.868      51.563     140.692
  H      -48.877      49.868     139.352
  H      -48.025      50.394     137.876
  H      -43.509      57.643     134.652
  H      -43.856      55.958     134.264
  P      -51.081      53.383     138.694
  C      -52.191      55.727     138.505
  O      -51.070      54.969     138.932
  O      -52.399      52.892     139.457
  O      -51.083      52.975     137.258
  H      -52.792      52.126     139.000
  H      -52.031      56.760     138.733
  H      -53.069      55.382     139.011
  H      -52.319      55.611     137.449

 6  7  8  9  10  11  12  13  14  15  25  28  32  33  34  35 0
 6-311+G(2d,p)
 ****
 36  37  40 0
 6-311+G(2d,p)
 ****
 1  2  3  4  5  16  17  18  19  20  21  22  23  24 0
 3-21G
 ****
 26  27  29  30  31  38  39 41  42  43  44  45  46  47  48 0
 3-21G
 ****


