%nproc=1
%NoSave
%Mem=1900MB
#P OB98/GEN NMR

erre ene a

0 1
  C      142.227     327.226    -193.170
  O      142.627     328.510    -192.680
  P      142.831     328.728    -191.103
  C      145.183     327.669    -190.905
  O      143.809     327.592    -190.537
  C      146.052     327.829    -189.648
  O      145.924     326.683    -188.768
  C      147.538     327.906    -189.968
  O      147.984     329.073    -190.620
  C      148.175     327.567    -188.630
  O      148.243     328.713    -187.776
  C      147.176     326.531    -188.067
  N      147.677     325.154    -188.166
  C      148.510     324.727    -187.137
  O      148.860     325.455    -186.209
  N      148.961     323.440    -187.233
  C      148.695     322.566    -188.248
  O      149.146     321.430    -188.291
  C      147.831     323.082    -189.317
  C      147.371     324.332    -189.232
  O      141.580     328.951    -190.317
  O      143.758     330.038    -191.050
  H      148.821     328.482    -187.028
  H      143.438     330.600    -190.318
  H      149.560     323.112    -186.488
  H      147.607     322.421    -190.146
  H      146.730     324.734    -190.017
  H      146.970     326.732    -187.008
  H      149.199     327.198    -188.753
  H      147.781     327.078    -190.652
  H      145.712     328.707    -189.099
  H      145.338     328.510    -191.580
  H      145.452     326.766    -191.459
  P      149.085     329.067    -191.794
  C      147.844     330.763    -193.315
  O      148.353     329.455    -193.165
  O      150.045     327.919    -191.831
  O      149.897     330.412    -191.473
  H      150.833     330.274    -191.728
  H      147.365     330.846    -194.295
  H      148.643     331.503    -193.249
  H      147.089     330.966    -192.545
  H      142.140     327.262    -194.236
  H      141.282     326.960    -192.744
  H      142.960     326.496    -192.897

 3  4  5  6  7  8  9  10  11  12  13  23  28  29  30  31  32 0
 6-311+G(2d,p)
 ****
 33  34 0
 6-311+G(2d,p)
 ****
 1  2  14  15  16  17  18  19  20  21  22  24  25  26  27 0
 3-21G
 ****
 35  36  37  38  39  40  41  42  43  44  45 0
 3-21G
 ****


