%nproc=1
%NoSave
%Mem=1900MB
#P OB98/GEN NMR

erre ene a

0 1
  C      -54.975     730.072      96.822
  O      -54.684     728.757      97.263
  P      -55.070     727.492      96.367
  C      -56.566     726.354      98.126
  O      -56.523     727.014      96.861
  C      -57.871     725.578      98.272
  O      -59.014     726.465      98.267
  C      -58.140     724.606      97.126
  O      -57.262     723.498      96.996
  C      -59.614     724.301      97.353
  O      -59.800     723.314      98.360
  C      -60.148     725.674      97.819
  N      -60.914     726.363      96.772
  C      -62.194     725.863      96.529
  O      -62.673     724.908      97.140
  N      -62.887     726.483      95.537
  C      -62.429     727.499      94.745
  O      -63.085     727.971      93.830
  C      -61.060     727.968      95.031
  C      -60.377     727.386      96.017
  O      -54.042     726.415      96.309
  O      -55.414     728.146      94.929
  H      -60.764     723.161      98.449
  H      -56.139     728.791      94.947
  H      -63.813     726.139      95.323
  H      -60.674     728.784      94.428
  H      -59.373     727.715      96.252
  H      -60.801     725.552      98.695
  H      -60.089     723.920      96.437
  H      -58.072     725.159      96.182
  H      -57.860     725.062      99.249
  H      -56.513     727.104      98.923
  H      -55.700     725.696      98.229
  P      -56.553     723.115      95.605
  C      -58.390     721.509      94.731
  O      -57.688     722.728      94.546
  O      -55.360     722.224      95.705
  O      -56.089     724.561      95.070
  H      -55.270     724.458      94.550
  H      -59.081     721.386      93.901
  H      -58.956     721.530      95.666
  H      -57.698     720.660      94.733
  H      -54.642     730.776      97.556
  H      -56.031     730.176      96.682
  H      -54.472     730.257      95.896

 3  4  5  6  7  8  9  10  11  12  13  23  28  29  30  31  32 0
 6-311+G(2d,p)
 ****
 33  34 0
 6-311+G(2d,p)
 ****
 1  2  14  15  16  17  18  19  20  21  22  24  25  26  27 0
 3-21G
 ****
 35  36  37  38  39  40  41  42  43  44  45 0
 3-21G
 ****


