%nproc=1
%NoSave
%Mem=1900MB
#P OB98/GEN NMR

erre ene a

0 1
  C     -319.966     -82.770    1351.327
  O     -319.865     -82.264    1352.651
  P     -321.184     -82.257    1353.556
  C     -320.957     -84.314    1355.190
  O     -320.761     -82.919    1354.962
  C     -320.307     -84.711    1356.520
  O     -318.874     -84.647    1356.407
  C     -320.662     -83.825    1357.699
  O     -321.977     -84.112    1358.188
  C     -319.533     -84.144    1358.671
  O     -319.804     -85.369    1359.366
  C     -318.340     -84.322    1357.715
  N     -317.474     -83.142    1357.658
  C     -316.692     -82.888    1358.775
  O     -316.714     -83.606    1359.783
  N     -315.897     -81.777    1358.712
  C     -315.858     -80.871    1357.703
  O     -315.149     -79.869    1357.704
  C     -316.722     -81.174    1356.542
  C     -317.484     -82.276    1356.575
  O     -322.063     -83.379    1352.817
  O     -321.819     -80.913    1353.657
  H     -321.503     -84.025    1352.363
  H     -320.642     -85.239    1359.842
  H     -315.301     -81.585    1359.510
  H     -316.708     -80.478    1355.722
  H     -318.136     -82.510    1355.735
  H     -317.725     -85.169    1358.015
  H     -319.406     -83.366    1359.421
  H     -320.613     -82.763    1357.398
  H     -320.580     -85.762    1356.726
  H     -320.492     -84.878    1354.373
  H     -322.036     -84.524    1355.207
  P     -322.906     -82.822    1358.513
  C     -324.724     -83.271    1356.688
  O     -324.385     -83.228    1358.056
  O     -322.408     -81.785    1357.397
  O     -322.776     -82.339    1359.921
  H     -322.276     -82.198    1356.539
  H     -325.613     -83.889    1356.556
  H     -323.915     -83.699    1356.085
  H     -324.944     -82.241    1356.332
  H     -319.011     -82.711    1350.849
  H     -320.677     -82.190    1350.777
  H     -320.286     -83.790    1351.359

 3  4  5  6  7  8  9  10  11  12  13  24  28  29  30  31  32 0
 6-311+G(2d,p)
 ****
 33  34 0
 6-311+G(2d,p)
 ****
 1  2  14  15  16  17  18  19  20  21  22  23  25  26  27 0
 3-21G
 ****
 35  36  37  38  39  40  41  42  43  44  45 0
 3-21G
 ****


