%nproc=1
%NoSave
%Mem=1900MB
#P OB98/GEN NMR

erre ene a

0 1
  C      335.605    -318.701    -228.058
  O      336.313    -317.478    -228.144
  H      334.812    -318.596    -227.312
  H      336.266    -319.514    -227.745
  H      335.152    -318.944    -229.023
  P      337.627    -317.427    -229.061
  C      336.399    -316.805    -231.253
  O      337.295    -316.383    -230.230
  C      336.094    -315.645    -232.195
  O      335.332    -314.633    -231.510
  C      337.345    -314.947    -232.710
  O      337.977    -315.714    -233.716
  C      336.766    -313.622    -233.164
  O      336.143    -313.739    -234.450
  C      335.713    -313.351    -232.064
  N      336.204    -312.455    -231.024
  C      335.722    -311.141    -231.065
  O      334.926    -310.797    -231.938
  N      336.174    -310.249    -230.125
  C      337.014    -310.632    -229.218
  N      337.422    -309.697    -228.314
  C      337.538    -312.009    -229.128
  C      337.098    -312.859    -230.055
  O      338.169    -318.740    -229.539
  O      338.685    -316.635    -228.156
  H      335.896    -312.828    -234.711
  H      339.190    -317.255    -227.600
  H      338.232    -312.286    -228.350
  H      337.430    -313.890    -230.061
  H      334.806    -312.911    -232.497
  H      337.532    -312.853    -233.236
  H      338.036    -314.750    -231.882
  H      335.485    -316.023    -233.026
  H      337.045    -308.761    -228.420
  H      335.482    -317.144    -230.759
  H      338.003    -309.901    -227.515
  H      336.824    -317.647    -231.814
  P      339.568    -315.662    -233.904
  C      340.320    -317.430    -232.182
  O      340.087    -317.143    -233.560
  O      340.257    -314.555    -233.184
  O      339.737    -315.588    -235.499
  H      339.505    -314.690    -235.844
  H      340.660    -318.439    -232.080
  H      339.411    -317.303    -231.633
  H      341.064    -316.763    -231.799

 6  7  8  9  10  11  12  13  14  15  16  26  30  31  32  33  35 0
 6-311+G(2d,p)
 ****
 37  38 0
 6-311+G(2d,p)
 ****
 1  2  3  4  5  17  18  19  20  21  22  23  24  25 0
 3-21G
 ****
 27  28  29  34  36  39  40  41  42  43  44  45  46 0
 3-21G
 ****


