%nproc=1
%NoSave
%Mem=1900MB
#P OB98/GEN NMR

erre ene a

0 1
  C       96.232     -66.898     -72.628
  O       97.063     -65.848     -73.125
  P       98.227     -65.262     -72.194
  C       98.096     -62.831     -73.042
  O       98.893     -63.999     -72.926
  C       98.288     -62.166     -74.415
  O       99.705     -62.093     -74.730
  C       97.589     -62.925     -75.551
  O       96.765     -62.087     -76.361
  C       98.732     -63.622     -76.267
  O       98.428     -63.943     -77.616
  C       99.910     -62.669     -76.033
  N      101.200     -63.357     -76.139
  C      101.891     -63.208     -77.334
  O      101.435     -62.602     -78.304
  N      103.107     -63.833     -77.408
  C      103.649     -64.640     -76.452
  O      104.720     -65.216     -76.584
  C      102.843     -64.814     -75.233
  C      101.676     -64.174     -75.135
  O       99.193     -66.263     -71.655
  O       97.409     -64.568     -70.996
  H       97.755     -64.659     -77.621
  H       97.897     -64.730     -70.166
  H      103.628     -63.719     -78.263
  H      103.231     -65.464     -74.463
  H      101.057     -64.294     -74.256
  H       99.912     -61.861     -76.770
  H       98.937     -64.568     -75.749
  H       96.896     -63.677     -75.161
  H       97.897     -61.146     -74.340
  H       98.376     -62.121     -72.263
  H       97.047     -63.088     -72.860
  P       95.167     -62.051     -76.295
  C       94.404     -61.257     -78.640
  O       94.648     -60.912     -77.292
  O       94.574     -62.007     -74.927
  O       94.746     -63.410     -77.035
  H       93.994     -63.812     -76.563
  H       94.425     -60.345     -79.243
  H       93.415     -61.712     -78.726
  H       95.162     -61.947     -79.020
  H       95.513     -67.167     -73.373
  H       95.724     -66.564     -71.747
  H       96.836     -67.749     -72.391

 3  4  5  6  7  8  9  10  11  12  13  23  28  29  30  31  32 0
 6-311+G(2d,p)
 ****
 33  34 0
 6-311+G(2d,p)
 ****
 1  2  14  15  16  17  18  19  20  21  22  24  25  26  27 0
 3-21G
 ****
 35  36  37  38  39  40  41  42  43  44  45 0
 3-21G
 ****


