%nproc=1
%NoSave
%Mem=1900MB
#P OB98/GEN NMR

erre ene a

0 1
  C      -10.413     -16.520     -43.629
  O      -10.762     -15.862     -42.427
  H      -10.155     -15.768     -44.379
  H      -11.255     -17.110     -44.002
  H       -9.547     -17.168     -43.472
  P      -11.187     -16.756     -41.169
  C      -13.603     -16.650     -42.072
  O      -12.752     -16.487     -40.946
  C      -14.464     -17.896     -41.901
  O      -13.641     -19.078     -41.889
  C      -15.273     -17.916     -40.605
  O      -16.447     -17.133     -40.741
  C      -15.556     -19.404     -40.482
  O      -16.605     -19.776     -41.395
  C      -14.217     -20.012     -40.934
  N       -9.604     -21.758     -39.766
  C      -10.274     -21.761     -40.974
  N       -9.638     -22.353     -42.008
  N      -11.465     -21.249     -41.147
  C      -12.004     -20.756     -40.009
  C      -11.446     -20.711     -38.752
  C      -10.105     -21.230     -38.585
  O       -9.469     -21.231     -37.536
  N      -12.321     -20.194     -37.831
  C      -13.392     -19.892     -38.539
  N      -13.256     -20.227     -39.865
  O      -10.363     -16.590     -39.928
  O      -11.145     -18.254     -41.724
  H      -16.284     -19.561     -42.290
  H      -10.277     -18.666     -41.561
  H       -8.696     -22.185     -39.693
  H      -14.288     -19.429     -38.143
  H      -14.347     -20.970     -41.449
  H      -15.873     -19.700     -39.482
  H       -8.871     -22.998     -41.865
  H      -14.670     -17.605     -39.746
  H      -10.133     -22.411     -42.888
  H      -15.123     -17.971     -42.775
  H      -12.965     -16.743     -42.958
  H      -14.246     -15.773     -42.194
  P      -16.916     -16.134     -39.574
  C      -17.477     -17.944     -37.817
  O      -17.983     -16.969     -38.719
  O      -17.397     -14.804     -40.044
  O      -15.665     -16.057     -38.586
  H      -15.016     -15.350     -38.825
  H      -18.292     -18.423     -37.315
  H      -16.844     -17.469     -37.097
  H      -16.914     -18.674     -38.360

 6  7  8  9  10  11  12  13  14  15  26  29  33  34 0
 6-311+G(2d,p)
 ****
 36  38  39  40  41 0
 6-311+G(2d,p)
 ****
 1  2  3  4  5  16  17  18  19  20  21  22  23  24  25 0
 3-21G
 ****
 27  28  30  31  32  35  37  42  43  44  45  46  47 0
 3-21G
 ****
 48  49 0
 3-21G
 ****


