%nproc=1
%NoSave
%Mem=1900MB
#P OB98/GEN NMR

erre ene a

0 1
  C      -77.838    -891.400     804.751
  O      -78.670    -892.510     805.064
  H      -77.293    -891.620     803.834
  H      -77.117    -891.240     805.560
  H      -78.439    -890.500     804.601
  P      -79.579    -892.370     806.381
  C      -79.075    -894.790     807.197
  O      -80.058    -893.860     806.750
  C      -79.699    -896.190     807.319
  O      -80.719    -896.150     808.336
  C      -80.397    -896.660     806.057
  O      -79.483    -897.150     805.077
  C      -81.307    -897.740     806.614
  O      -80.618    -898.990     806.775
  C      -81.700    -897.160     807.974
  N      -86.695    -898.180     808.397
  C      -85.609    -898.950     808.547
  N      -84.296    -898.610     808.432
  C      -84.189    -897.290     808.158
  C      -85.205    -896.370     807.986
  C      -86.522    -896.860     808.116
  N      -87.642    -896.070     807.947
  N      -84.693    -895.120     807.676
  C      -83.394    -895.280     807.670
  N      -83.037    -896.580     807.961
  O      -80.913    -891.680     805.824
  O      -78.969    -891.590     807.498
  H      -81.138    -899.510     807.416
  H      -80.891    -890.720     806.026
  H      -85.796    -900.000     808.770
  H      -82.661    -894.510     807.466
  H      -81.697    -897.930     808.768
  H      -82.159    -897.910     805.951
  H      -81.015    -895.850     805.634
  H      -78.909    -896.900     807.633
  H      -78.677    -894.480     808.167
  H      -78.250    -894.810     806.468
  H      -88.542    -896.500     807.997
  H      -87.515    -895.120     807.630
  P      -79.322    -896.310     803.724
  C      -79.243    -898.360     802.103
  O      -78.560    -897.260     802.677
  O      -78.238    -895.190     804.083
  O      -80.587    -895.710     803.212
  H      -78.454    -894.360     803.619
  H      -78.587    -898.878     801.434
  H      -80.097    -898.007     801.563
  H      -79.561    -899.026     802.878

 6  7  8  9  10  11  12  13  14  15  25  28  32  33  34  35 0
 6-311+G(2d,p)
 ****
 36  37  40 0
 6-311+G(2d,p)
 ****
 1  2  3  4  5  16  17  18  19  20  21  22  23  24 0
 3-21G
 ****
 26  27  29  30  31  38  39 41  42  43  44  45  46  47  48 0
 3-21G
 ****


