%nproc=1
%NoSave
%Mem=1900MB
#P OB98/GEN NMR

erre ene a

0 1
  C      391.296    -406.153      72.298
  O      391.463    -406.408      70.918
  H      390.235    -405.992      72.503
  H      391.844    -405.247      72.569
  H      391.649    -406.996      72.899
  P      392.857    -407.055      70.455
  C      393.444    -405.116      68.832
  O      393.152    -406.498      68.978
  C      393.422    -404.717      67.356
  O      392.031    -404.677      66.908
  C      394.045    -403.339      67.065
  O      394.726    -403.398      65.803
  C      392.827    -402.447      66.908
  O      393.108    -401.286      66.134
  C      391.854    -403.414      66.241
  N      388.860    -399.592      64.960
  C      390.147    -399.894      64.565
  N      390.763    -399.014      63.741
  N      390.787    -400.971      64.942
  C      390.046    -401.778      65.747
  C      388.769    -401.588      66.216
  C      388.077    -400.383      65.801
  O      386.949    -400.047      66.135
  N      388.401    -402.608      67.059
  C      389.460    -403.394      67.116
  N      390.485    -402.933      66.337
  O      392.465    -408.588      70.210
  O      393.980    -406.914      71.428
  H      392.373    -400.650      66.257
  H      392.663    -409.112      71.010
  H      388.421    -398.740      64.653
  H      389.540    -404.291      67.715
  H      392.065    -403.558      65.172
  H      392.461    -402.133      67.892
  H      390.327    -398.178      63.382
  H      394.733    -402.989      67.841
  H      391.692    -399.245      63.411
  H      393.922    -405.498      66.773
  H      394.441    -404.913      69.237
  H      392.712    -404.531      69.398
  P      396.205    -402.781      65.716
  C      395.734    -401.714      63.388
  O      396.573    -402.551      64.171
  O      397.137    -404.010      66.138
  O      396.421    -401.601      66.606
  H      397.911    -403.686      66.626
  H      396.113    -401.664      62.389
  H      395.715    -400.732      63.812
  H      394.742    -402.116      63.374

 6  7  8  9  10  11  12  13  14  15  26  29  33  34 0
 6-311+G(2d,p)
 ****
 36  38  39  40  41 0
 6-311+G(2d,p)
 ****
 1  2  3  4  5  16  17  18  19  20  21  22  23  24  25 0
 3-21G
 ****
 27  28  30  31  32  35  37  42  43  44  45  46  47 0
 3-21G
 ****
 48  49 0
 3-21G
 ****


