%nproc=1
%NoSave
%Mem=1900MB
#P OB98/GEN NMR

erre ene a

0 1
  C      325.990    -895.610    -656.625
  O      326.353    -896.300    -657.831
  P      325.478    -897.550    -658.325
  C      325.423    -896.910    -660.870
  O      324.691    -897.130    -659.654
  C      324.929    -895.640    -661.560
  O      325.105    -894.480    -660.704
  C      325.629    -895.310    -662.851
  O      325.202    -896.130    -663.924
  C      325.267    -893.830    -663.009
  O      323.964    -893.690    -663.634
  C      325.242    -893.330    -661.578
  N      326.450    -892.550    -661.225
  C      326.312    -891.170    -661.328
  O      325.297    -890.600    -661.759
  N      327.426    -890.450    -660.975
  C      328.633    -890.950    -660.584
  O      329.599    -890.260    -660.287
  C      328.704    -892.450    -660.561
  C      327.644    -893.150    -660.880
  O      324.309    -897.580    -657.225
  O      326.200    -898.870    -658.357
  H      324.051    -894.080    -664.541
  H      323.973    -898.490    -657.132
  H      327.354    -889.440    -661.011
  H      329.654    -892.890    -660.286
  H      327.687    -894.230    -660.868
  H      324.369    -892.720    -661.393
  H      325.978    -893.310    -663.664
  H      326.713    -895.390    -662.699
  H      323.833    -895.750    -661.717
  H      325.276    -897.760    -661.528
  H      326.485    -896.830    -660.619
  P      325.890    -897.590    -664.060
  C      323.701    -899.020    -664.053
  O      324.856    -898.600    -663.356
  O      327.086    -897.440    -663.000
  O      326.297    -897.900    -665.456
  H      326.856    -896.850    -662.249
  H      323.888    -899.100    -665.141
  H      322.884    -898.320    -663.855
  H      323.416    -900.000    -663.676
  H      326.679    -894.810    -656.451
  H      326.020    -896.292    -655.801
  H      325.001    -895.214    -656.725

 3  4  5  6  7  8  9  10  11  12  13  23  28  29  30  31  32 0
 6-311+G(2d,p)
 ****
 33  34 0
 6-311+G(2d,p)
 ****
 1  2  14  15  16  17  18  19  20  21  22  24  25  26 0
 3-21G
 ****
 27  35  36  37  38  39  40  41  42  43  44  45 0
 3-21G
 ****


