%nproc=1
%NoSave
%Mem=1900MB
#P OB98/GEN NMR

erre ene a

0 1
  C      -63.564      -5.457     242.896
  O      -62.567      -5.610     243.888
  P      -62.963      -5.709     245.435
  C      -62.406      -8.200     245.634
  O      -63.432      -7.218     245.720
  C      -62.570      -9.271     246.713
  O      -61.555     -10.296     246.523
  C      -62.438      -8.758     248.153
  O      -63.329      -9.541     248.956
  C      -61.000      -9.108     248.502
  O      -60.770      -9.166     249.904
  C      -60.862     -10.442     247.780
  N      -56.639     -12.463     249.831
  C      -57.849     -12.185     250.360
  N      -58.916     -11.626     249.755
  C      -58.639     -11.343     248.471
  C      -57.442     -11.541     247.802
  C      -56.407     -12.145     248.535
  N      -55.178     -12.468     248.005
  N      -57.533     -11.068     246.505
  C      -58.759     -10.600     246.400
  N      -59.484     -10.804     247.540
  O      -63.910      -4.663     245.919
  O      -61.561      -5.615     246.200
  H      -60.988      -8.297     250.288
  H      -61.468      -4.735     246.618
  H      -57.984     -12.457     251.404
  H      -59.168     -10.110     245.526
  H      -61.335     -11.263     248.333
  H      -60.326      -8.355     248.077
  H      -62.652      -7.692     248.267
  H      -63.545      -9.757     246.566
  H      -61.445      -7.699     245.770
  H      -54.560     -13.019     248.578
  H      -55.071     -12.489     246.993
  H      -62.416      -8.663     244.638
  P      -63.692      -9.066     250.445
  C      -65.951      -8.637     249.315
  O      -65.052      -8.232     250.335
  O      -62.586      -8.395     251.188
  O      -64.155     -10.422     251.165
  H      -64.130     -10.298     252.135
  H      -65.627      -8.219     248.361
  H      -66.951      -8.261     249.553
  H      -65.992      -9.727     249.241
  H      -63.103      -5.411     241.931
  H      -64.109      -4.554     243.075
  H      -64.234      -6.291     242.932

 3  4  5  6  7  8  9  10  11  12  22  25  29  30  31  32 0
 6-311+G(2d,p)
 ****
 33  36  37 0
 6-311+G(2d,p)
 ****
 1  2  13  14  15  16  17  18  19  20  21  23  24  26 0
 3-21G
 ****
 27  28  34  35  38  39  40  41  42  43  44  45  46  47  48 0
 3-21G
 ****


