%nproc=1
%NoSave
%Mem=1900MB
#P OB98/GEN NMR

erre ene a

0 1
  C      815.141    -534.861    -368.501
  O      814.934    -535.005    -367.102
  P      816.220    -534.835    -366.150
  C      814.844    -533.443    -364.384
  O      815.684    -534.549    -364.666
  C      813.349    -533.848    -364.396
  O      813.142    -534.842    -363.339
  C      812.373    -532.727    -364.108
  O      811.069    -533.114    -364.566
  C      812.387    -532.681    -362.594
  O      811.245    -532.006    -362.074
  C      812.495    -534.181    -362.222
  N      813.261    -534.426    -360.992
  C      812.772    -533.914    -359.775
  O      811.722    -533.240    -359.692
  N      813.530    -534.129    -358.670
  C      814.690    -534.842    -358.623
  O      815.373    -534.939    -357.622
  C      815.100    -535.486    -359.877
  C      814.377    -535.250    -360.986
  O      816.850    -533.435    -366.605
  O      817.194    -535.950    -366.248
  H      811.392    -531.872    -361.123
  H      817.639    -533.583    -367.136
  H      813.216    -533.704    -357.818
  H      815.973    -536.119    -359.878
  H      814.665    -535.705    -361.936
  H      811.504    -534.637    -362.082
  H      813.264    -532.145    -362.250
  H      812.634    -531.762    -364.545
  H      813.132    -534.339    -365.357
  H      815.029    -532.655    -365.103
  H      815.088    -533.024    -363.403
  P      810.233    -532.101    -365.485
  C      809.183    -533.852    -367.028
  O      808.965    -532.898    -365.999
  O      811.026    -531.366    -366.531
  O      809.619    -531.085    -364.390
  H      809.343    -530.253    -364.850
  H      808.426    -534.639    -366.939
  H      810.171    -534.291    -366.958
  H      809.076    -533.367    -368.004
  H      814.212    -534.997    -369.015
  H      815.844    -535.595    -368.835
  H      815.522    -533.883    -368.706

 3  4  5  6  7  8  9  10  11  12  13  23  28  29  30  31  32 0
 6-311+G(2d,p)
 ****
 33  34 0
 6-311+G(2d,p)
 ****
 1  2  14  15  16  17  18  19  20  21  22  24  25  26  27 0
 3-21G
 ****
 35  36  37  38  39  40  41  42  43  44  45 0
 3-21G
 ****


