%nproc=1
%NoSave
%Mem=1900MB
#P OB98/GEN NMR

erre ene a

0 1
  C       57.529    -173.968    -157.241
  O       57.616    -173.181    -156.069
  H       57.344    -173.309    -158.093
  H       56.702    -174.678    -157.158
  H       58.467    -174.505    -157.405
  P       57.826    -173.978    -154.692
  C       56.241    -175.232    -153.066
  O       56.428    -174.702    -154.372
  C       55.140    -176.289    -153.072
  O       55.143    -177.024    -154.315
  C       55.249    -177.316    -151.951
  O       54.677    -176.823    -150.752
  C       54.466    -178.481    -152.543
  O       53.045    -178.278    -152.392
  C       54.870    -178.421    -154.022
  N       56.354    -182.711    -156.238
  C       55.085    -182.229    -155.985
  N       54.054    -183.024    -156.349
  N       54.844    -181.081    -155.413
  C       55.968    -180.419    -155.045
  C       57.279    -180.790    -155.238
  C       57.530    -182.038    -155.925
  O       58.631    -182.479    -156.250
  N       58.140    -179.842    -154.746
  C       57.349    -178.920    -154.226
  N       56.021    -179.230    -154.378
  O       57.895    -172.813    -153.593
  O       59.036    -174.846    -154.632
  H       52.838    -178.163    -151.448
  H       58.558    -173.059    -152.918
  H       56.481    -183.587    -156.709
  H       57.687    -178.015    -153.739
  H       54.053    -178.736    -154.680
  H       54.698    -179.419    -152.035
  H       54.170    -184.012    -156.517
  H       56.292    -177.621    -151.797
  H       53.125    -182.704    -156.097
  H       54.177    -175.759    -153.015
  H       55.962    -174.418    -152.392
  H       57.180    -175.679    -152.722
  P       55.209    -177.413    -149.362
  C       55.055    -179.674    -148.089
  O       54.608    -178.893    -149.190
  O       54.401    -176.554    -148.276
  O       56.679    -177.289    -149.152
  H       54.996    -175.896    -147.868
  H       54.570    -180.627    -148.108
  H       54.817    -179.171    -147.175
  H       56.114    -179.811    -148.156

 6  7  8  9  10  11  12  13  14  15  26  29  33  34 0
 6-311+G(2d,p)
 ****
 36  38  39  40  41 0
 6-311+G(2d,p)
 ****
 1  2  3  4  5  16  17  18  19  20  21  22  23  24  25 0
 3-21G
 ****
 27  28  30  31  32  35  37  42  43  44  45  46  47 0
 3-21G
 ****
 48  49 0
 3-21G
 ****


