%nproc=1
%NoSave
%Mem=1900MB
#P OB98/GEN NMR

erre ene a

0 1
  C      147.760    -127.961    -127.582
  O      146.520    -127.800    -126.920
  H      147.593    -128.520    -128.509
  H      148.462    -128.522    -126.955
  H      148.181    -126.983    -127.831
  P      146.554    -127.033    -125.512
  C      146.245    -129.111    -124.020
  O      147.145    -128.113    -124.482
  C      146.474    -129.396    -122.532
  O      147.772    -130.026    -122.373
  C      146.463    -128.130    -121.665
  O      145.830    -128.430    -120.419
  C      147.934    -127.850    -121.423
  O      148.174    -127.110    -120.232
  C      148.531    -129.262    -121.420
  N      153.223    -128.180    -119.734
  C      152.026    -128.221    -119.115
  N      150.824    -128.536    -119.634
  C      150.944    -128.877    -120.931
  C      152.093    -128.886    -121.701
  C      153.284    -128.507    -121.054
  N      154.505    -128.441    -121.684
  N      151.807    -129.256    -123.007
  C      150.499    -129.483    -123.014
  N      149.936    -129.253    -121.785
  O      145.270    -126.393    -125.096
  O      147.784    -126.030    -125.713
  H      149.121    -126.856    -120.208
  H      148.542    -126.478    -126.137
  H      152.035    -127.956    -118.056
  H      149.926    -129.797    -123.879
  H      148.453    -129.741    -120.437
  H      148.339    -127.264    -122.267
  H      145.963    -127.293    -122.147
  H      145.727    -130.114    -122.191
  H      146.381    -130.042    -124.595
  H      155.306    -128.175    -121.141
  H      154.570    -128.701    -122.658
  H      145.231    -128.745    -124.186
  P      144.518    -127.590    -120.014
  C      145.933    -125.825    -118.747
  O      144.946    -126.059    -119.753
  O      143.660    -128.202    -118.960
  O      143.736    -127.487    -121.408
  H      142.772    -127.561    -121.232
  H      146.126    -124.775    -118.674
  H      146.836    -126.336    -119.008
  H      145.576    -126.189    -117.806

 6  7  8  9  10  11  12  13  14  15  25  28  32  33  34  35 0
 6-311+G(2d,p)
 ****
 36  39  40 0
 6-311+G(2d,p)
 ****
 1  2  3  4  5  16  17  18  19  20  21  22  23  24 0
 3-21G
 ****
 26  27  29  30  31  37  38  41  42  43  44  45  46  47 0
 3-21G
 ****
 48 0
 3-21G
 ****


