%nproc=1
%NoSave
%Mem=1900MB
#P OB98/GEN NMR

erre ene a

0 1
  C     -453.015     -89.924    -775.215
  O     -451.649     -89.586    -775.379
  P     -451.247     -88.740    -776.683
  C     -448.705     -89.102    -776.201
  O     -449.776     -89.218    -777.125
  C     -447.451     -89.798    -776.757
  O     -447.727     -91.196    -777.033
  C     -446.981     -89.207    -778.084
  O     -446.254     -88.002    -777.879
  C     -446.119     -90.347    -778.633
  O     -444.802     -90.305    -778.075
  C     -446.898     -91.591    -778.147
  N     -447.672     -92.225    -779.207
  C     -447.172     -93.445    -779.677
  O     -446.138     -93.948    -779.259
  N     -447.893     -94.041    -780.672
  C     -449.002     -93.519    -781.292
  O     -449.581     -94.065    -782.225
  C     -449.462     -92.211    -780.772
  C     -448.788     -91.633    -779.773
  O     -451.014     -87.253    -776.121
  O     -452.259     -88.772    -777.775
  H     -444.349     -89.531    -778.467
  H     -451.301     -86.597    -776.789
  H     -447.565     -94.923    -781.014
  H     -450.354     -91.782    -781.231
  H     -449.109     -90.668    -779.395
  H     -446.187     -92.341    -777.747
  H     -446.022     -90.283    -779.720
  H     -447.832     -89.047    -778.744
  H     -446.654     -89.749    -775.995
  H     -449.003     -89.577    -775.249
  H     -448.501     -88.038    -776.008
  P     -446.594     -86.772    -778.865
  C     -444.138     -86.060    -778.299
  O     -445.171     -86.166    -779.276
  O     -447.208     -85.727    -777.812
  O     -447.508     -87.152    -779.971
  H     -446.803     -85.788    -776.926
  H     -444.146     -86.895    -777.597
  H     -444.243     -85.122    -777.757
  H     -443.175     -86.062    -778.831
  H     -453.138     -90.483    -774.311
  H     -453.339     -90.515    -776.046
  H     -453.600     -89.030    -775.164

 3  4  5  6  7  8  9  10  11  12  13  23  28  29  30  31  32 0
 6-311+G(2d,p)
 ****
 33  34 0
 6-311+G(2d,p)
 ****
 1  2  14  15  16  17  18  19  20  21  22  24  25  26 0
 3-21G
 ****
 27  35  36  37  38  39  40  41  42  43  44  45 0
 3-21G
 ****


