%nproc=1
%NoSave
%Mem=1900MB
#P OB98/GEN NMR

erre ene a

0 1
  C      399.173      63.480      33.589
  O      398.808      64.738      34.113
  H      398.313      62.808      33.674
  H      400.001      63.050      34.157
  H      399.445      63.568      32.536
  P      399.941      65.863      34.291
  C      398.422      67.658      33.262
  O      399.127      67.250      34.429
  C      397.290      68.628      33.604
  O      396.197      67.900      34.227
  C      397.702      69.751      34.563
  O      397.214      71.003      34.069
  C      397.005      69.387      35.866
  O      396.794      70.525      36.700
  C      395.743      68.697      35.339
  N      395.078      67.877      36.348
  C      394.218      68.548      37.227
  O      394.080      69.770      37.148
  N      393.569      67.830      38.195
  C      393.795      66.555      38.312
  N      393.124      65.898      39.299
  C      394.727      65.818      37.440
  C      395.322      66.529      36.486
  O      400.998      65.860      33.238
  O      400.509      65.633      35.769
  H      396.215      70.257      37.450
  H      401.399      66.055      35.849
  H      394.889      64.758      37.583
  H      396.018      66.071      35.789
  H      395.022      69.433      34.963
  H      397.618      68.668      36.423
  H      398.778      69.829      34.697
  H      396.891      69.033      32.668
  H      392.494      66.444      39.879
  H      398.024      66.767      32.764
  H      393.225      64.911      39.488
  H      399.129      68.158      32.593
  P      398.318      72.147      33.838
  C      397.481      72.925      31.510
  O      397.673      73.266      32.875
  O      399.403      71.422      32.909
  O      398.922      72.665      35.096
  H      400.164      71.135      33.443
  H      397.048      73.756      30.992
  H      396.826      72.082      31.442
  H      398.424      72.681      31.067

 6  7  8  9  10  11  12  13  14  15  16  26  30  31  32  33  35 0
 6-311+G(2d,p)
 ****
 37  38 0
 6-311+G(2d,p)
 ****
 1  2  3  4  5  17  18  19  20  21  22  23  24  25 0
 3-21G
 ****
 27  28  29  34  36  39  40  41  42  43  44  45  46 0
 3-21G
 ****


