%nproc=1
%NoSave
%Mem=1900MB
#P OB98/GEN NMR

erre ene a

0 1
  C       18.614     -45.726     281.543
  O       17.746     -45.501     280.449
  H       19.107     -44.783     281.797
  H       19.377     -46.464     281.278
  H       18.044     -46.071     282.408
  P       16.948     -46.776     279.892
  C       14.644     -46.058     280.800
  O       15.733     -46.967     280.927
  C       13.471     -46.723     280.079
  O       13.019     -47.848     280.876
  C       12.275     -45.790     279.868
  O       11.688     -46.058     278.595
  C       11.310     -46.194     280.969
  O        9.957     -45.892     280.642
  C       11.609     -47.686     281.112
  N        8.320     -50.602     283.707
  C        8.507     -50.406     282.385
  N        9.420     -49.622     281.775
  C       10.227     -49.039     282.680
  C       10.157     -49.139     284.062
  C        9.141     -49.965     284.579
  N        8.932     -50.148     285.925
  N       11.132     -48.354     284.652
  C       11.784     -47.801     283.646
  N       11.261     -48.171     282.437
  O       17.771     -47.996     279.642
  O       16.214     -46.167     278.608
  H        9.869     -44.920     280.558
  H       15.828     -45.291     278.798
  H        7.827     -50.946     281.727
  H       12.623     -47.121     283.740
  H       11.060     -48.298     280.386
  H       11.561     -45.659     281.893
  H       12.550     -44.736     279.933
  H       13.830     -47.133     279.128
  H       14.959     -45.168     280.243
  H        8.188     -50.770     286.210
  H        9.543     -49.695     286.587
  H       14.344     -45.749     281.806
  P       11.978     -45.041     277.390
  C       13.597     -46.621     276.146
  O       13.434     -45.361     276.791
  O       11.701     -43.600     277.668
  O       11.009     -45.589     276.233
  H       10.646     -44.830     275.737
  H       14.603     -46.713     275.793
  H       12.921     -46.689     275.319
  H       13.389     -47.407     276.841

 6  7  8  9  10  11  12  13  14  15  25  28  32  33  34  35 0
 6-311+G(2d,p)
 ****
 36  39  40 0
 6-311+G(2d,p)
 ****
 1  2  3  4  5  16  17  18  19  20  21  22  23  24 0
 3-21G
 ****
 26  27  29  30  31  37  38  41  42  43  44  45  46  47 0
 3-21G
 ****
 48 0
 3-21G
 ****


