%nproc=1
%NoSave
%Mem=1900MB
#P OB98/GEN NMR

erre ene a

0 1
  C      617.204     214.921     327.527
  O      617.312     214.920     326.117
  H      618.056     215.467     327.947
  H      617.224     213.896     327.906
  H      616.279     215.417     327.842
  P      616.073     214.322     325.299
  C      617.588     212.325     324.512
  O      616.358     212.758     325.083
  C      618.024     211.007     325.143
  O      617.994     211.076     326.581
  C      617.101     209.840     324.822
  O      617.210     209.407     323.484
  C      617.591     208.813     325.840
  O      618.801     208.182     325.399
  C      617.858     209.716     327.075
  N      616.811     209.604     328.081
  C      616.719     208.366     328.726
  O      617.498     207.454     328.439
  N      615.732     208.182     329.660
  C      614.917     209.153     329.944
  N      613.955     208.907     330.869
  C      615.001     210.486     329.308
  C      615.954     210.636     328.393
  O      616.300     214.928     323.837
  O      614.728     214.602     325.885
  H      618.988     207.473     326.043
  H      617.184     214.750     323.473
  H      614.310     211.268     329.579
  H      616.083     211.579     327.877
  H      618.817     209.449     327.540
  H      616.863     208.018     326.002
  H      616.063     210.091     325.075
  H      619.053     210.797     324.833
  H      613.916     207.975     331.269
  H      618.360     213.083     324.639
  H      613.253     209.575     331.143
  H      617.424     212.197     323.439
  P      615.927     209.436     322.514
  C      616.456     206.985     321.926
  O      615.457     207.913     322.347
  O      616.128     210.175     321.230
  O      614.776     210.052     323.442
  H      614.583     209.533     324.245
  H      616.026     206.008     321.851
  H      617.253     206.970     322.640
  H      616.838     207.281     320.971

 6  7  8  9  10  11  12  13  14  15  16  26  30  31  32  33  35 0
 6-311+G(2d,p)
 ****
 37  38 0
 6-311+G(2d,p)
 ****
 1  2  3  4  5  17  18  19  20  21  22  23  24  25 0
 3-21G
 ****
 27  28  29  34  36  39  40  41  42  43  44  45  46 0
 3-21G
 ****


