%nproc=1
%NoSave
%Mem=1900MB
#P OB98/GEN NMR

erre ene a

0 1
  C     -887.461     142.855      28.238
  O     -887.309     142.327      29.539
  H     -886.806     142.315      27.557
  H     -887.179     143.912      28.234
  H     -888.497     142.742      27.893
  P     -888.337     142.811      30.661
  C     -886.547     144.591      31.288
  O     -887.488     143.630      31.748
  C     -885.283     144.548      32.148
  O     -885.640     144.952      33.499
  C     -884.639     143.154      32.240
  O     -883.219     143.319      32.283
  C     -885.125     142.640      33.582
  O     -884.294     141.631      34.152
  C     -885.144     143.940      34.402
  N     -885.979     143.843      35.595
  C     -885.338     143.712      36.820
  O     -884.116     143.771      36.981
  N     -886.160     143.520      37.902
  C     -887.517     143.414      37.873
  O     -888.194     143.218      38.868
  C     -888.147     143.547      36.541
  C     -887.354     143.745      35.484
  O     -888.710     141.452      31.423
  O     -889.547     143.534      30.148
  H     -889.480     141.023      31.002
  H     -884.738     141.293      34.952
  H     -885.703     143.423      38.797
  H     -889.220     143.458      36.485
  H     -887.788     143.823      34.492
  H     -884.125     144.220      34.688
  H     -886.140     142.230      33.487
  H     -884.913     142.483      31.416
  H     -884.571     145.288      31.763
  H     -886.993     145.592      31.355
  H     -886.302     144.381      30.239
  P     -882.452     143.507      30.887
  C     -880.929     141.474      31.551
  O     -881.021     142.823      31.082
  O     -882.151     145.079      30.914
  O     -883.245     143.030      29.718
  H     -881.961     145.412      31.795
  H     -879.900     141.189      31.619
  H     -881.435     140.824      30.868
  H     -881.384     141.400      32.517

 6  7  8  9  10  11  12  13  14  15  16  27  31  32  33  34  35 0
 6-311+G(2d,p)
 ****
 36  37 0
 6-311+G(2d,p)
 ****
 1  2  3  4  5  17  18  19  20  21  22  23  24  25 0
 3-21G
 ****
 26  28  29  30  38  39  40  41  42  43  44  45 0
 3-21G
 ****


