%nproc=1
%NoSave
%Mem=1900MB
#P OB98/GEN NMR

erre ene a

0 1
  C      884.074    -837.426    -554.521
  O      883.369    -837.463    -553.290
  H      884.073    -836.396    -554.882
  H      883.579    -838.063    -555.253
  H      885.113    -837.741    -554.386
  P      883.373    -838.834    -552.449
  C      880.797    -839.039    -552.455
  O      882.032    -839.627    -552.857
  C      879.666    -840.072    -552.557
  O      879.317    -840.290    -553.956
  C      880.049    -841.452    -552.001
  O      880.055    -841.456    -550.581
  C      878.990    -842.314    -552.654
  O      877.769    -842.258    -551.935
  C      878.832    -841.647    -554.045
  N      879.537    -842.380    -555.097
  C      878.759    -843.187    -555.935
  O      877.520    -843.274    -555.824
  N      879.434    -843.931    -556.874
  C      880.810    -844.056    -556.930
  O      881.363    -844.902    -557.622
  C      881.570    -843.145    -556.095
  C      880.919    -842.363    -555.208
  O      883.603    -838.686    -550.977
  O      884.527    -839.708    -553.149
  H      885.331    -839.677    -552.593
  H      877.531    -841.300    -551.869
  H      878.877    -844.550    -557.450
  H      882.649    -843.162    -556.166
  H      881.478    -841.722    -554.542
  H      877.768    -841.581    -554.324
  H      879.308    -843.363    -552.720
  H      881.037    -841.743    -552.377
  H      878.774    -839.674    -552.040
  H      880.573    -838.194    -553.119
  H      880.876    -838.670    -551.428
  P      880.464    -842.788    -549.791
  C      877.958    -842.962    -549.198
  O      879.129    -843.675    -549.589
  O      881.254    -842.554    -548.542
  O      881.296    -843.638    -550.858
  H      882.146    -843.915    -550.445
  H      877.142    -843.646    -549.095
  H      877.720    -842.232    -549.943
  H      878.134    -842.473    -548.263

 6  7  8  9  10  11  12  13  14  15  16  27  31  32  33  34  35 0
 6-311+G(2d,p)
 ****
 36  37 0
 6-311+G(2d,p)
 ****
 1  2  3  4  5  17  18  19  20  21  22  23  24  25 0
 3-21G
 ****
 26  28  29  30  38  39  40  41  42  43  44  45 0
 3-21G
 ****


