%nproc=1
%NoSave
%Mem=1900MB
#P OB98/GEN NMR

erre ene a

0 1
  C      187.091    -233.173    -155.407
  O      188.513    -233.025    -155.297
  P      189.085    -232.202    -154.042
  C      189.602    -234.218    -152.473
  O      188.809    -233.061    -152.714
  C      190.563    -233.976    -151.315
  O      189.854    -233.636    -150.105
  C      191.399    -235.196    -150.960
  O      192.460    -235.362    -151.884
  C      191.865    -234.868    -149.546
  O      193.106    -234.152    -149.543
  C      190.713    -233.981    -148.996
  N      189.968    -234.622    -147.929
  C      190.527    -234.515    -146.645
  O      191.595    -233.934    -146.481
  N      189.861    -235.098    -145.595
  C      188.756    -235.758    -145.806
  N      188.155    -236.314    -144.725
  C      188.152    -235.905    -147.137
  C      188.810    -235.322    -148.151
  O      188.064    -230.980    -153.915
  O      190.489    -231.734    -154.222
  H      192.988    -233.408    -150.165
  H      188.526    -230.192    -153.583
  H      187.238    -236.470    -147.274
  H      188.433    -235.384    -149.169
  H      191.118    -233.034    -148.616
  H      192.017    -235.776    -148.954
  H      190.758    -236.094    -150.940
  H      191.221    -233.138    -151.583
  H      188.598    -236.186    -143.825
  H      190.158    -234.493    -153.374
  H      187.295    -236.853    -144.779
  H      188.918    -235.061    -152.253
  P      192.568    -236.754    -152.658
  C      191.655    -235.914    -154.916
  O      191.400    -236.700    -153.769
  O      191.949    -237.782    -151.593
  O      193.912    -237.174    -153.136
  H      192.047    -238.698    -151.913
  H      190.892    -236.127    -155.676
  H      192.643    -236.163    -155.339
  H      191.612    -234.849    -154.663
  H      186.858    -233.739    -156.285
  H      186.636    -232.207    -155.475
  H      186.718    -233.683    -154.544

 3  4  5  6  7  8  9  10  11  12  13  21  23  27  28  29  30  32 0
 6-311+G(2d,p)
 ****
 34  35 0
 6-311+G(2d,p)
 ****
 1  2  14  15  16  17  18  19  20  22  24  25  26 0
 3-21G
 ****
 31  33  36  37  38  39  40  41  42  43  44  45  46 0
 3-21G
 ****


