%nproc=1
%NoSave
%Mem=1900MB
#P OB98/GEN NMR

erre ene a

0 1
  C      143.382    -412.724     215.077
  O      144.316    -413.775     215.252
  H      142.624    -412.797     215.859
  H      142.895    -412.818     214.102
  H      143.883    -411.750     215.156
  P      145.621    -413.741     214.309
  C      144.407    -414.819     212.244
  O      145.065    -413.693     212.806
  C      144.191    -414.616     210.741
  O      143.511    -415.783     210.212
  C      143.358    -413.396     210.405
  O      143.869    -412.812     209.199
  C      141.965    -413.965     210.141
  O      141.182    -413.108     209.305
  C      142.313    -415.336     209.545
  N      141.216    -416.301     209.716
  C      140.188    -416.249     208.766
  O      140.214    -415.412     207.864
  N      139.134    -417.118     208.891
  C      139.068    -417.919     209.908
  N      137.987    -418.743     209.994
  C      140.110    -417.964     210.963
  C      141.146    -417.143     210.798
  O      146.174    -415.233     214.469
  O      146.605    -412.675     214.666
  H      140.246    -413.391     209.382
  H      145.473    -415.912     214.467
  H      140.002    -418.633     211.810
  H      141.956    -417.118     211.519
  H      142.533    -415.248     208.477
  H      141.433    -414.077     211.092
  H      143.335    -412.639     211.188
  H      145.174    -414.584     210.250
  H      137.289    -418.664     209.261
  H      143.441    -414.979     212.731
  H      137.815    -419.363     210.765
  H      145.036    -415.700     212.425
  P      144.767    -411.477     209.295
  C      142.918    -409.693     209.035
  O      143.873    -410.290     209.905
  O      145.532    -411.127     208.062
  O      145.769    -411.809     210.506
  H      146.645    -411.449     210.281
  H      142.392    -408.922     209.558
  H      142.224    -410.437     208.703
  H      143.420    -409.271     208.189

 6  7  8  9  10  11  12  13  14  15  16  26  30  31  32  33  35 0
 6-311+G(2d,p)
 ****
 37  38 0
 6-311+G(2d,p)
 ****
 1  2  3  4  5  17  18  19  20  21  22  23  24  25 0
 3-21G
 ****
 27  28  29  34  36  39  40  41  42  43  44  45  46 0
 3-21G
 ****


