%nproc=1
%NoSave
%Mem=1900MB
#P OB98/GEN NMR

erre ene a

0 1
  C      -54.554     -33.550     -63.129
  O      -54.545     -32.630     -64.200
  H      -53.547     -33.602     -62.707
  H      -54.835     -34.545     -63.482
  H      -55.242     -33.222     -62.346
  P      -55.913     -32.372     -64.998
  C      -55.540     -33.471     -67.314
  O      -56.031     -33.631     -65.992
  C      -54.018     -33.571     -67.326
  O      -53.567     -34.799     -66.715
  C      -53.387     -33.582     -68.714
  O      -53.397     -32.320     -69.358
  C      -51.984     -34.039     -68.360
  O      -51.253     -32.948     -67.773
  C      -52.286     -35.139     -67.316
  N      -52.335     -36.476     -67.905
  C      -51.106     -37.105     -68.136
  O      -50.049     -36.539     -67.859
  N      -51.097     -38.353     -68.710
  C      -52.217     -38.915     -69.046
  N      -52.150     -40.149     -69.617
  C      -53.533     -38.281     -68.840
  C      -53.519     -37.079     -68.270
  O      -56.054     -31.030     -65.641
  O      -57.065     -32.694     -63.934
  H      -50.991     -32.358     -68.503
  H      -57.935     -32.539     -64.375
  H      -54.434     -38.778     -69.164
  H      -54.447     -36.546     -68.091
  H      -51.539     -35.132     -66.513
  H      -51.411     -34.384     -69.223
  H      -53.851     -34.347     -69.348
  H      -53.629     -32.746     -66.715
  H      -51.234     -40.558     -69.747
  H      -55.873     -32.498     -67.687
  H      -52.964     -40.627     -69.979
  H      -55.942     -34.257     -67.961
  P      -53.385     -32.323     -70.966
  C      -51.220     -31.247     -71.954
  O      -51.846     -32.394     -71.403
  O      -53.828     -30.833     -71.333
  O      -54.255     -33.358     -71.606
  H      -54.778     -30.799     -71.556
  H      -50.201     -31.474     -72.186
  H      -51.254     -30.447     -71.245
  H      -51.733     -30.955     -72.847

 6  7  8  9  10  11  12  13  14  15  16  26  30  31  32  33  35 0
 6-311+G(2d,p)
 ****
 37  38 0
 6-311+G(2d,p)
 ****
 1  2  3  4  5  17  18  19  20  21  22  23  24  25 0
 3-21G
 ****
 27  28  29  34  36  39  40  41  42  43  44  45  46 0
 3-21G
 ****


