%nproc=1
%NoSave
%Mem=1900MB
#P OB98/GEN NMR

erre ene a

0 1
  C       76.239      21.603      45.651
  O       75.313      22.463      45.017
  H       76.665      20.931      44.901
  H       75.738      21.003      46.416
  H       77.045      22.184      46.105
  P       74.498      23.461      45.976
  C       72.279      22.260      45.311
  O       73.176      22.627      46.348
  C       70.853      22.227      45.851
  O       70.661      21.082      46.710
  C       70.481      23.438      46.699
  O       70.167      24.582      45.920
  C       69.263      22.898      47.426
  O       68.134      22.884      46.534
  C       69.727      21.461      47.757
  N       70.357      21.349      49.073
  C       69.500      21.326      50.180
  O       68.282      21.406      50.031
  N       70.047      21.244      51.439
  C       71.334      21.180      51.581
  N       71.821      21.114      52.850
  C       72.271      21.184      50.443
  C       71.722      21.271      49.235
  O       73.936      24.574      44.972
  O       75.248      24.008      47.143
  H       67.450      22.330      46.951
  H       73.312      25.171      45.450
  H       73.338      21.140      50.613
  H       72.350      21.282      48.350
  H       68.886      20.758      47.712
  H       68.982      23.497      48.293
  H       71.256      23.668      47.437
  H       70.172      22.112      44.998
  H       71.158      21.176      53.611
  H       72.567      21.270      44.940
  H       72.802      21.243      53.065
  H       72.339      22.981      44.490
  P       70.762      25.994      46.399
  C       68.961      26.189      48.259
  O       70.344      26.182      47.936
  O       69.839      27.051      45.636
  O       72.215      26.200      46.102
  H       70.359      27.818      45.327
  H       68.842      26.322      49.314
  H       68.521      25.259      47.965
  H       68.478      26.991      47.741

 6  7  8  9  10  11  12  13  14  15  16  26  30  31  32  33  35 0
 6-311+G(2d,p)
 ****
 37  38 0
 6-311+G(2d,p)
 ****
 1  2  3  4  5  17  18  19  20  21  22  23  24  25 0
 3-21G
 ****
 27  28  29  34  36  39  40  41  42  43  44  45  46 0
 3-21G
 ****


