%nproc=1
%NoSave
%Mem=1900MB
#P OB98/GEN NMR

erre ene a

0 1
  C       -6.365     116.207       6.861
  O       -5.481     115.867       7.910
  H       -6.403     115.375       6.154
  H       -6.003     117.094       6.335
  H       -7.372     116.387       7.244
  P       -5.358     116.854       9.166
  C       -3.014     115.907       9.681
  O       -3.794     117.071       9.438
  C       -1.535     116.281       9.755
  O       -1.026     116.567       8.434
  C       -1.256     117.527      10.584
  O       -1.329     117.248      11.969
  C        0.128     117.901      10.081
  O        1.140     117.110      10.722
  C        0.021     117.553       8.581
  N       -0.233     118.723       7.742
  C        0.879     119.467       7.363
  O        2.025     119.203       7.724
  N        0.626     120.556       6.570
  C       -0.607     121.025       6.225
  O       -0.783     122.058       5.587
  C       -1.747     120.212       6.674
  C       -1.511     119.116       7.398
  O       -6.161     116.478      10.366
  O       -5.817     118.272       8.577
  H        1.190     117.424      11.646
  H       -6.717     118.477       8.893
  H        1.418     121.115       6.297
  H       -2.741     120.544       6.407
  H       -2.339     118.508       7.743
  H        0.948     117.078       8.233
  H        0.369     118.947      10.274
  H       -1.958     118.324      10.313
  H       -0.982     115.418      10.150
  H       -3.171     115.201       8.859
  H       -3.346     115.445      10.616
  P       -1.620     118.430      13.007
  C       -0.473     117.133      14.906
  O       -0.513     118.348      14.164
  O       -3.030     118.527      13.487
  O       -1.203     119.751      12.205
  H       -1.980     120.335      12.118
  H        0.298     117.192      15.645
  H       -0.271     116.317      14.244
  H       -1.416     116.977      15.386

 6  7  8  9  10  11  12  13  14  15  16  26  31  32  33  34  35 0
 6-311+G(2d,p)
 ****
 36  37 0
 6-311+G(2d,p)
 ****
 1  2  3  4  5  17  18  19  20  21  22  23  24  25 0
 3-21G
 ****
 27  28  29  30  38  39  40  41  42  43  44  45 0
 3-21G
 ****


