%nproc=1
%NoSave
%Mem=1900MB
#P OB98/GEN NMR

erre ene a

0 1
  C      609.516     -33.195     -40.938
  O      610.071     -32.159     -41.747
  P      611.663     -31.974     -41.860
  C      611.576     -31.148     -44.280
  O      611.982     -30.836     -42.952
  C      610.100     -30.824     -44.560
  O      609.759     -29.499     -44.082
  C      609.697     -30.888     -46.034
  O      608.339     -31.345     -46.048
  C      609.780     -29.433     -46.459
  O      609.055     -29.166     -47.648
  C      609.262     -28.734     -45.192
  N      609.684     -27.334     -45.123
  C      608.690     -26.384     -44.910
  O      607.506     -26.725     -44.849
  N      609.043     -25.061     -44.818
  C      610.278     -24.713     -45.024
  N      610.567     -23.382     -44.947
  C      611.350     -25.675     -45.339
  C      610.984     -26.958     -45.361
  O      612.428     -33.242     -42.042
  O      612.065     -31.271     -40.474
  H      608.173     -29.592     -47.576
  H      612.972     -31.535     -40.231
  H      612.360     -25.340     -45.530
  H      611.698     -27.747     -45.578
  H      608.170     -28.765     -45.158
  H      610.827     -29.163     -46.640
  H      610.333     -31.541     -46.633
  H      609.498     -31.535     -43.976
  H      609.797     -22.752     -44.758
  H      611.746     -32.215     -44.455
  H      611.462     -23.001     -45.202
  H      612.215     -30.600     -44.983
  P      607.956     -32.863     -46.387
  C      605.957     -33.060     -44.810
  O      606.378     -33.005     -46.158
  O      608.782     -33.889     -45.690
  O      608.110     -32.977     -47.981
  H      608.164     -33.919     -48.230
  H      604.866     -32.946     -44.772
  H      606.416     -32.268     -44.220
  H      606.222     -34.031     -44.377
  H      608.448     -33.156     -40.992
  H      609.827     -33.061     -39.923
  H      609.856     -34.145     -41.293

 3  4  5  6  7  8  9  10  11  12  13  23  27  28  29  30  32 0
 6-311+G(2d,p)
 ****
 34  35 0
 6-311+G(2d,p)
 ****
 1  2  14  15  16  17  18  19  20  21  22  24  25  26 0
 3-21G
 ****
 31  33  36  37  38  39  40  41  42  43  44  45  46 0
 3-21G
 ****


