%nproc=1
%NoSave
%Mem=1900MB
#P OB98/GEN NMR

erre ene a

0 1
  C      663.487     361.792     882.394
  O      663.325     362.509     881.189
  H      664.410     361.207     882.369
  H      663.542     362.501     883.221
  H      662.629     361.130     882.551
  P      663.330     361.643     879.835
  C      660.842     361.062     879.400
  O      662.083     360.635     879.937
  C      660.408     360.127     878.276
  O      661.428     360.068     877.256
  C      660.179     358.685     878.701
  O      658.920     358.512     879.342
  C      660.221     357.978     877.349
  O      658.952     358.122     876.686
  C      661.301     358.777     876.598
  N      665.204     357.185     873.655
  C      664.034     357.806     873.353
  N      663.048     358.189     874.183
  C      663.345     357.889     875.459
  C      664.488     357.254     875.919
  C      665.448     356.896     874.954
  N      666.622     356.244     875.276
  N      664.455     357.121     877.293
  C      663.308     357.669     877.655
  N      662.598     358.134     876.580
  O      664.600     360.677     880.016
  O      663.419     362.432     878.571
  H      658.799     359.081     876.578
  H      665.021     360.546     879.145
  H      663.887     358.035     872.302
  H      662.962     357.743     878.676
  H      661.005     358.976     875.561
  H      660.432     356.911     877.429
  H      661.000     358.315     879.328
  H      659.501     360.546     877.814
  H      660.949     362.075     879.002
  H      667.348     356.191     874.575
  H      666.802     356.038     876.250
  H      660.095     361.073     880.197
  P      658.801     357.329     880.425
  C      659.865     358.824     882.263
  O      659.955     357.620     881.508
  O      659.345     356.054     879.641
  O      657.430     357.108     880.970
  H      658.971     355.237     880.022
  H      660.693     358.884     882.938
  H      658.950     358.829     882.818
  H      659.884     359.663     881.600

 6  7  8  9  10  11  12  13  14  15  25  28  32  33  34  35 0
 6-311+G(2d,p)
 ****
 36  39  40 0
 6-311+G(2d,p)
 ****
 1  2  3  4  5  16  17  18  19  20  21  22  23  24 0
 3-21G
 ****
 26  27  29  30  31  37  38  41  42  43  44  45  46  47  48 0
 3-21G
 ****


