%nproc=1
%NoSave
%Mem=1900MB
#P OB98/GEN NMR

erre ene a

0 1
  C     -174.956    -892.756     563.385
  O     -174.138    -891.766     562.780
  H     -174.866    -892.666     564.476
  H     -174.637    -893.756     563.085
  H     -176.000    -892.606     563.109
  P     -173.890    -891.866     561.200
  C     -172.033    -892.926     559.753
  O     -172.666    -892.906     561.025
  C     -170.586    -893.386     559.849
  O     -169.856    -892.626     560.833
  C     -170.435    -894.836     560.316
  O     -170.905    -895.806     559.402
  C     -168.966    -894.876     560.749
  O     -168.080    -895.066     559.646
  C     -168.787    -893.456     561.332
  N     -168.746    -893.456     562.791
  C     -167.525    -893.816     563.377
  O     -166.527    -894.126     562.708
  N     -167.483    -893.806     564.731
  C     -168.537    -893.546     565.558
  O     -168.440    -893.576     566.788
  C     -169.814    -893.216     564.905
  C     -169.852    -893.176     563.567
  O     -173.662    -890.546     560.499
  O     -175.142    -892.686     560.651
  H     -167.175    -895.026     559.998
  H     -175.225    -892.596     559.671
  H     -166.611    -894.056     565.176
  H     -170.668    -893.006     565.533
  H     -170.788    -892.946     563.054
  H     -167.850    -893.006     560.968
  H     -168.768    -895.666     561.473
  H     -171.024    -894.976     561.235
  H     -170.104    -893.236     558.876
  H     -172.051    -891.906     559.345
  H     -172.598    -893.586     559.075
  P     -171.063    -897.346     559.745
  C     -169.630    -899.526     559.504
  O     -169.712    -898.116     559.334
  O     -172.372    -897.986     559.382
  O     -170.967    -897.326     561.367
  H     -171.558    -898.046     561.699
  H     -168.669    -899.868     559.182
  H     -170.391    -900.000     558.921
  H     -169.768    -899.769     560.537

 6  7  8  9  10  11  12  13  14  15  16  26  31  32  33  34  35 0
 6-311+G(2d,p)
 ****
 36  37 0
 6-311+G(2d,p)
 ****
 1  2  3  4  5  17  18  19  20  21  22  23  24  25 0
 3-21G
 ****
 27  28  29  30  38  39  40  41  42  43  44  45 0
 3-21G
 ****


