%nproc=1
%NoSave
%Mem=1900MB
#P OB98/GEN NMR

erre ene a

0 1
  C     -657.049      53.363    -457.646
  O     -657.014      53.956    -458.931
  P     -656.233      55.345    -459.090
  C     -654.613      54.695    -461.024
  O     -654.760      54.962    -459.632
  C     -653.166      54.396    -461.381
  O     -652.743      53.173    -460.711
  C     -652.898      54.174    -462.841
  O     -652.777      55.411    -463.544
  C     -651.558      53.430    -462.806
  O     -650.481      54.383    -462.632
  C     -651.711      52.573    -461.531
  N     -650.194      47.733    -461.260
  C     -649.547      48.894    -460.873
  N     -648.322      48.750    -460.290
  N     -650.047      50.094    -461.017
  C     -651.273      50.105    -461.562
  C     -652.016      49.020    -462.010
  C     -651.435      47.701    -461.877
  O     -651.933      46.647    -462.269
  N     -653.229      49.427    -462.508
  C     -653.269      50.728    -462.330
  N     -652.067      51.194    -461.799
  O     -655.951      55.791    -457.571
  O     -656.956      56.399    -459.845
  H     -649.659      53.871    -462.591
  H     -655.847      56.745    -457.499
  H     -649.767      46.835    -461.121
  H     -654.102      51.377    -462.564
  H     -650.789      52.583    -460.932
  H     -651.356      52.861    -463.717
  H     -647.955      47.846    -460.024
  H     -653.656      53.519    -463.297
  H     -647.855      49.580    -459.951
  H     -652.540      55.217    -460.973
  H     -654.938      55.569    -461.586
  H     -655.263      53.841    -461.286
  P     -654.101      55.919    -464.357
  C     -654.474      58.362    -463.554
  O     -654.775      56.988    -463.363
  O     -655.079      54.635    -464.246
  O     -653.835      56.339    -465.747
  H     -655.707      54.655    -464.989
  H     -654.362      58.608    -464.621
  H     -653.545      58.616    -463.027
  H     -655.294      58.971    -463.165
  H     -657.601      52.447    -457.691
  H     -657.523      54.031    -456.958
  H     -656.050      53.162    -457.319

 3  4  5  6  7  8  9  10  11  12  23  26  30  31  33  0
 6-311+G(2d,p)
 ****
 35  36  37  38 0
 6-311+G(2d,p)
 ****
 1  2  13  14  15  16  17  18  19  20  21  22  24  25  27  28  29 0
 3-21G
 ****
 32  34  39  40  41  42  43  44  45  46  47  48  49 0
 3-21G
 ****


