%nproc=1
%NoSave
%Mem=1900MB
#P OB98/GEN NMR

erre ene a

0 1
  C      196.970    -457.104     167.573
  O      198.310    -456.653     167.539
  H      196.630    -457.155     168.611
  H      196.344    -456.387     167.035
  H      196.875    -458.084     167.098
  P      199.443    -457.686     168.001
  C      199.656    -458.517     165.551
  O      199.453    -458.870     166.913
  C      200.960    -459.122     165.029
  O      200.829    -460.573     165.036
  C      201.336    -458.694     163.603
  O      202.756    -458.512     163.539
  C      200.950    -459.898     162.764
  O      201.696    -459.983     161.554
  C      201.228    -461.037     163.732
  N      201.533    -465.318     161.009
  C      202.476    -464.452     161.437
  N      202.314    -463.361     162.211
  C      201.036    -463.237     162.597
  C      199.962    -464.044     162.249
  C      200.251    -465.124     161.399
  N      199.285    -465.971     160.902
  N      198.791    -463.559     162.804
  C      199.148    -462.463     163.457
  N      200.496    -462.227     163.358
  O      198.779    -458.372     169.291
  O      200.778    -457.091     168.315
  H      201.353    -459.322     160.925
  H      198.982    -457.842     170.083
  H      203.494    -464.658     161.106
  H      198.478    -461.800     163.979
  H      202.297    -461.310     163.776
  H      199.887    -459.843     162.512
  H      200.834    -457.776     163.271
  H      201.766    -458.870     165.735
  H      199.719    -457.422     165.468
  H      199.570    -466.654     160.211
  H      198.315    -465.773     161.091
  H      198.810    -458.869     164.953
  P      203.326    -457.026     163.736
  C      203.380    -457.168     166.337
  O      202.879    -456.501     165.185
  O      202.431    -456.156     162.736
  O      204.780    -456.891     163.431
  H      202.948    -455.417     162.378
  H      202.991    -456.700     167.217
  H      204.448    -457.111     166.346
  H      203.077    -458.194     166.315

 6  7  8  9  10  11  12  13  14  15  25  28  32  33  34  35 0
 6-311+G(2d,p)
 ****
 36  39  40 0
 6-311+G(2d,p)
 ****
 1  2  3  4  5  16  17  18  19  20  21  22  23  24 0
 3-21G
 ****
 26  27  29  30  31  37  38  41  42  43  44  45  46  47 0
 3-21G
 ****
 48 0
 3-21G
 ****


