%nproc=1
%NoSave
%Mem=1900MB
#P OB98/GEN NMR

erre ene a

0 1
  C      147.325      84.707    -650.995
  O      146.534      83.553    -651.290
  P      145.174      83.783    -652.105
  C      145.906      82.423    -654.204
  O      145.494      83.678    -653.672
  C      146.444      82.606    -655.626
  O      147.541      83.537    -655.652
  C      146.998      81.322    -656.225
  O      145.948      80.485    -656.668
  C      147.881      81.852    -657.347
  O      147.150      81.986    -658.578
  C      148.323      83.236    -656.820
  N      149.752      83.296    -656.531
  C      150.600      83.218    -657.638
  O      150.134      83.086    -658.774
  N      151.952      83.272    -657.427
  C      152.416      83.367    -656.220
  N      153.768      83.405    -656.071
  C      151.551      83.422    -655.024
  C      150.237      83.382    -655.253
  O      144.872      85.339    -651.892
  O      144.035      82.933    -651.637
  H      147.824      82.190    -659.260
  H      143.911      85.500    -651.869
  H      151.983      83.489    -654.037
  H      149.528      83.416    -654.429
  H      148.096      84.017    -657.559
  H      148.718      81.177    -657.547
  H      147.617      80.799    -655.482
  H      145.633      82.994    -656.257
  H      154.330      83.361    -656.915
  H      145.070      81.724    -654.211
  H      154.232      83.469    -655.179
  H      146.670      81.993    -653.547
  P      145.354      79.422    -655.628
  C      143.192      80.790    -655.381
  O      144.328      80.258    -654.723
  O      146.581      79.210    -654.625
  O      144.853      78.131    -656.181
  H      146.380      78.498    -653.990
  H      142.487      81.145    -654.628
  H      142.704      80.026    -655.987
  H      143.491      81.634    -656.006
  H      148.198      84.412    -650.451
  H      146.752      85.391    -650.405
  H      147.617      85.182    -651.908

 3  4  5  6  7  8  9  10  11  12  13  21  23  27  28  29  30  32 0
 6-311+G(2d,p)
 ****
 34  35 0
 6-311+G(2d,p)
 ****
 1  2  14  15  16  17  18  19  20  22  24  25  26 0
 3-21G
 ****
 31  33  36  37  38  39  40  41  42  43  44  45  46 0
 3-21G
 ****


