%nproc=1
%NoSave
%Mem=1900MB
#P OB98/GEN NMR

erre ene a

0 1
  C      400.022     883.016     396.865
  O      399.494     882.495     398.076
  P      400.436     881.523     398.944
  C      398.541     879.717     398.976
  O      399.919     880.028     398.702
  C      398.325     878.220     398.839
  O      398.308     877.817     397.456
  C      399.419     877.384     399.502
  O      399.236     877.297     400.916
  C      399.238     876.044     398.800
  O      398.189     875.263     399.416
  C      398.836     876.481     397.383
  N      399.911     876.348     396.408
  C      400.391     875.073     396.165
  O      399.935     874.073     396.743
  N      401.410     874.970     395.263
  C      402.040     875.998     394.642
  O      402.994     875.846     393.878
  C      401.518     877.343     394.961
  C      400.512     877.446     395.819
  O      400.021     881.839     400.447
  O      401.892     881.726     398.711
  H      398.090     874.462     398.865
  H      400.808     881.785     401.038
  H      401.739     874.042     395.061
  H      402.002     878.185     394.471
  H      400.122     878.433     396.074
  H      397.981     875.857     397.017
  H      400.147     875.438     398.833
  H      400.401     877.789     399.251
  H      397.327     877.973     399.267
  H      397.903     880.250     398.272
  H      398.298     880.060     399.984
  P      400.364     876.522     401.736
  C      398.822     874.792     402.960
  O      399.790     875.042     401.941
  O      400.221     877.217     403.177
  O      401.721     876.624     401.128
  H      399.313     877.502     403.347
  H      398.136     875.642     403.085
  H      399.332     874.600     403.901
  H      398.230     873.912     402.680
  H      399.291     883.641     396.397
  H      400.273     882.209     396.209
  H      400.900     883.590     397.077

 3  4  5  6  7  8  9  10  11  12  13  23  28  29  30  31  32 0
 6-311+G(2d,p)
 ****
 33  34 0
 6-311+G(2d,p)
 ****
 1  2  14  15  16  17  18  19  20  21  22  24  25  26 0
 3-21G
 ****
 27  35  36  37  38  39  40  41  42  43  44  45 0
 3-21G
 ****


