%nproc=1
%NoSave
%Mem=1900MB
#P OB98/GEN NMR

erre ene a

0 1
  C      295.729     218.421    -124.581
  O      294.395     218.864    -124.450
  H      296.067     218.638    -125.599
  H      295.797     217.343    -124.419
  H      296.379     218.948    -123.877
  P      293.583     218.498    -123.113
  C      292.477     220.811    -123.293
  O      292.249     219.407    -123.181
  C      291.341     221.499    -124.051
  O      291.436     221.183    -125.465
  C      289.938     221.090    -123.581
  O      289.132     222.261    -123.417
  C      289.410     220.237    -124.726
  O      287.984     220.214    -124.767
  C      290.099     220.897    -125.925
  N      290.112     220.046    -127.113
  C      289.174     220.357    -128.107
  O      288.380     221.282    -127.945
  N      289.144     219.592    -129.245
  C      289.939     218.573    -129.363
  N      289.851     217.846    -130.514
  C      290.910     218.183    -128.318
  C      290.947     218.957    -127.236
  O      294.365     218.629    -121.848
  O      293.023     217.023    -123.370
  H      287.659     219.752    -123.959
  H      292.791     216.604    -122.505
  H      291.546     217.319    -128.458
  H      291.636     218.757    -126.418
  H      289.615     221.845    -126.184
  H      289.763     219.207    -124.613
  H      289.942     220.541    -122.646
  H      291.484     222.582    -123.972
  H      289.169     218.148    -131.204
  H      293.431     220.970    -123.806
  H      290.418     217.034    -130.708
  H      292.536     221.227    -122.282
  P      288.114     222.247    -122.171
  C      288.863     224.664    -121.597
  O      287.773     223.772    -121.795
  O      289.036     221.747    -120.957
  O      286.932     221.363    -122.367
  H      288.883     220.802    -120.784
  H      288.488     225.637    -121.355
  H      289.446     224.719    -122.493
  H      289.475     224.307    -120.795

 6  7  8  9  10  11  12  13  14  15  16  26  30  31  32  33  35 0
 6-311+G(2d,p)
 ****
 37  38 0
 6-311+G(2d,p)
 ****
 1  2  3  4  5  17  18  19  20  21  22  23  24  25 0
 3-21G
 ****
 27  28  29  34  36  39  40  41  42  43  44  45  46 0
 3-21G
 ****


