%nproc=1
%NoSave
%Mem=1900MB
#P OB98/GEN NMR

erre ene a

0 1
  C      217.348    -279.245     267.152
  O      218.203    -278.932     266.076
  H      217.903    -279.862     267.866
  H      216.487    -279.820     266.802
  H      217.015    -278.336     267.659
  P      217.635    -278.066     264.849
  C      217.602    -275.567     264.268
  O      218.160    -276.567     265.110
  C      217.393    -274.258     265.031
  O      216.349    -274.437     266.024
  C      218.649    -273.764     265.765
  O      218.841    -272.370     265.510
  C      218.309    -273.970     267.232
  O      219.045    -273.114     268.102
  C      216.792    -273.756     267.211
  N      216.149    -274.259     268.417
  C      216.219    -273.433     269.543
  O      216.793    -272.346     269.483
  N      215.686    -273.880     270.725
  C      215.172    -275.067     270.789
  N      214.690    -275.463     271.999
  C      215.104    -275.984     269.632
  C      215.601    -275.519     268.488
  O      216.167    -278.192     264.624
  O      218.504    -278.527     263.584
  H      218.841    -272.183     267.868
  H      218.003    -278.323     262.762
  H      214.671    -276.969     269.740
  H      215.600    -276.118     267.585
  H      216.549    -272.688     267.103
  H      218.532    -275.011     267.513
  H      219.553    -274.305     265.483
  H      217.022    -273.502     264.328
  H      214.763    -274.804     272.766
  H      216.649    -275.936     263.871
  H      214.290    -276.370     272.174
  H      218.292    -275.390     263.437
  P      220.179    -271.973     264.717
  C      220.853    -271.528     262.250
  O      219.833    -271.934     263.149
  O      221.102    -273.270     264.879
  O      220.847    -270.751     265.254
  H      221.852    -273.072     265.470
  H      220.476    -271.552     261.249
  H      221.687    -272.193     262.333
  H      221.165    -270.533     262.490

 6  7  8  9  10  11  12  13  14  15  16  26  30  31  32  33  35 0
 6-311+G(2d,p)
 ****
 37  38 0
 6-311+G(2d,p)
 ****
 1  2  3  4  5  17  18  19  20  21  22  23  24  25 0
 3-21G
 ****
 27  28  29  34  36  39  40  41  42  43  44  45  46 0
 3-21G
 ****


