%nproc=1
%NoSave
%Mem=1900MB
#P OB98/GEN NMR

erre ene a

0 1
  C      717.080     -75.536     284.203
  O      717.932     -74.697     284.968
  P      717.719     -73.110     284.846
  C      720.202     -72.568     285.351
  O      719.142     -72.515     284.407
  C      721.550     -72.343     284.663
  O      721.978     -73.555     284.023
  C      721.524     -71.290     283.566
  O      721.603     -69.970     284.093
  C      722.784     -71.651     282.785
  O      723.931     -71.075     283.434
  C      722.802     -73.182     282.889
  N      724.042     -75.459     278.530
  C      724.861     -74.900     279.503
  N      726.188     -74.984     279.298
  N      724.404     -74.310     280.585
  C      723.055     -74.333     280.677
  C      722.139     -74.858     279.779
  C      722.658     -75.463     278.569
  O      721.981     -75.908     277.642
  N      720.855     -74.703     280.227
  C      720.982     -74.132     281.410
  N      722.302     -73.856     281.712
  O      717.582     -72.641     286.378
  O      716.537     -72.695     284.032
  H      724.714     -71.351     282.933
  H      717.064     -71.813     286.427
  H      724.448     -75.916     277.734
  H      720.166     -73.890     282.074
  H      723.820     -73.549     283.102
  H      722.768     -71.267     281.763
  H      726.597     -75.540     278.558
  H      720.641     -71.410     282.922
  H      726.807     -74.618     280.018
  H      722.290     -72.079     285.431
  H      720.217     -73.553     285.837
  H      720.031     -71.804     286.120
  P      720.970     -68.797     283.192
  C      721.974     -66.895     284.652
  O      721.942     -67.542     283.388
  O      719.642     -68.395     283.998
  O      720.677     -69.194     281.773
  H      718.982     -68.005     283.389
  H      721.861     -67.612     285.465
  H      721.167     -66.162     284.700
  H      722.937     -66.379     284.765
  H      717.334     -76.560     284.382
  H      717.201     -75.315     283.163
  H      716.063     -75.366     284.487

 3  4  5  6  7  8  9  10  11  12  23  26  30  31  33  0
 6-311+G(2d,p)
 ****
 35  36  37  38 0
 6-311+G(2d,p)
 ****
 1  2  13  14  15  16  17  18  19  20  21  22  24  25  27  28  29 0
 3-21G
 ****
 32  34  39  40  41  42  43  44  45  46  47  48  49 0
 3-21G
 ****


