%nproc=1
%NoSave
%Mem=1900MB
#P OB98/GEN NMR

erre ene a

0 1
  C     -132.356     -33.584    -462.285
  O     -133.031     -32.996    -461.189
  H     -131.660     -32.849    -462.701
  H     -133.061     -33.881    -463.064
  H     -131.782     -34.454    -461.949
  P     -134.285     -33.783    -460.567
  C     -135.524     -31.614    -459.901
  O     -134.887     -32.805    -459.440
  C     -135.972     -30.743    -458.726
  O     -137.149     -31.297    -458.116
  C     -134.944     -30.651    -457.606
  O     -133.783     -29.925    -457.941
  C     -135.794     -30.210    -456.422
  O     -135.964     -28.797    -456.340
  C     -137.151     -30.886    -456.731
  N     -137.432     -31.994    -455.831
  C     -137.795     -31.649    -454.536
  O     -137.862     -30.485    -454.137
  N     -138.038     -32.691    -453.687
  C     -137.910     -34.015    -453.986
  O     -138.102     -34.905    -453.165
  C     -137.497     -34.322    -455.364
  C     -137.280     -33.315    -456.213
  O     -134.007     -35.172    -460.077
  O     -135.386     -33.721    -461.725
  H     -136.510     -28.530    -457.104
  H     -136.100     -34.388    -461.575
  H     -138.315     -32.458    -452.744
  H     -137.379     -35.366    -455.641
  H     -136.974     -33.513    -457.236
  H     -137.966     -30.157    -456.630
  H     -135.358     -30.532    -455.473
  H     -134.601     -31.669    -457.375
  H     -136.226     -29.745    -459.111
  H     -136.402     -31.911    -460.487
  H     -134.838     -31.060    -460.552
  P     -132.305     -30.509    -457.784
  C     -131.418     -28.083    -457.497
  O     -131.263     -29.337    -458.147
  O     -132.062     -31.881    -458.327
  O     -132.170     -30.594    -456.180
  H     -131.619     -31.374    -455.974
  H     -130.659     -27.409    -457.836
  H     -131.329     -28.216    -456.439
  H     -132.382     -27.679    -457.726

 6  7  8  9  10  11  12  13  14  15  16  26  31  32  33  34  35 0
 6-311+G(2d,p)
 ****
 36  37 0
 6-311+G(2d,p)
 ****
 1  2  3  4  5  17  18  19  20  21  22  23  24  25 0
 3-21G
 ****
 27  28  29  30  38  39  40  41  42  43  44  45 0
 3-21G
 ****


