%nproc=1
%NoSave
%Mem=1900MB
#P OB98/GEN NMR

erre ene a

0 1
  C     -471.224     357.851     328.918
  O     -470.831     357.114     327.756
  P     -471.969     356.683     326.712
  C     -470.346     356.735     324.675
  O     -471.270     355.980     325.451
  C     -469.393     355.803     323.923
  O     -468.389     355.248     324.809
  C     -470.074     354.607     323.284
  O     -470.657     354.946     322.038
  C     -468.891     353.669     323.080
  O     -468.159     354.055     321.900
  C     -468.057     353.922     324.340
  N     -466.590     349.468     326.402
  C     -466.168     350.135     325.311
  N     -466.616     351.310     324.813
  C     -467.602     351.802     325.580
  C     -468.136     351.234     326.724
  C     -467.593     350.015     327.142
  N     -468.027     349.335     328.260
  N     -469.143     352.022     327.241
  C     -469.201     353.062     326.428
  N     -468.293     352.970     325.402
  O     -472.467     358.089     326.122
  O     -473.099     355.922     327.328
  H     -468.696     353.787     321.128
  H     -473.420     358.051     325.929
  H     -465.360     349.663     324.757
  H     -469.876     353.905     326.535
  H     -466.973     353.909     324.129
  H     -469.198     352.633     322.936
  H     -470.800     354.150     323.972
  H     -468.876     356.394     323.150
  H     -469.786     357.417     325.320
  H     -467.568     348.474     328.505
  H     -468.759     349.746     328.824
  H     -470.911     357.366     323.970
  P     -472.204     354.583     321.827
  C     -473.036     356.512     320.290
  O     -472.597     355.165     320.383
  O     -472.949     355.560     322.860
  O     -472.542     353.148     322.071
  H     -473.770     355.142     323.179
  H     -472.963     356.827     319.245
  H     -472.415     357.168     320.900
  H     -474.081     356.586     320.613
  H     -470.361     358.064     329.514
  H     -471.918     357.272     329.490
  H     -471.686     358.768     328.619

 3  4  5  6  7  8  9  10  11  12  22  25  29  30  31  32 0
 6-311+G(2d,p)
 ****
 33  36  37 0
 6-311+G(2d,p)
 ****
 1  2  13  14  15  16  17  18  19  20  21  23  24  26 0
 3-21G
 ****
 27  28  34  35  38  39  40  41  42  43  44  45  46  47  48 0
 3-21G
 ****


