%nproc=1
%NoSave
%Mem=1900MB
#P OB98/GEN NMR

erre ene a

0 1
  C       39.849      67.609       7.012
  O       39.194      67.507       8.279
  P       40.127      67.228       9.555
  C       38.373      67.911      11.339
  O       39.188      66.874      10.810
  C       37.468      67.405      12.469
  O       36.569      66.370      11.991
  C       38.240      66.821      13.656
  O       37.494      67.118      14.841
  C       38.177      65.326      13.403
  O       38.410      64.589      14.601
  C       36.760      65.199      12.813
  N       36.565      63.966      12.055
  C       35.954      62.899      12.719
  O       35.670      62.995      13.916
  N       35.718      61.736      12.033
  C       36.107      61.625      10.798
  N       35.849      60.446      10.171
  C       36.810      62.703      10.074
  C       36.998      63.831      10.755
  O       40.712      68.675       9.913
  O       41.225      66.247       9.290
  H       37.692      64.805      15.235
  H       41.679      68.627      10.018
  H       37.133      62.561       9.054
  H       37.500      64.680      10.308
  H       36.009      65.224      13.610
  H       38.932      65.033      12.662
  H       39.257      67.213      13.750
  H       36.849      68.243      12.811
  H       35.356      59.733      10.701
  H       37.752      68.336      10.547
  H       36.106      60.252       9.217
  H       39.018      68.726      11.687
  P       38.138      68.123      15.909
  C       36.135      69.669      15.459
  O       36.902      68.999      16.444
  O       38.884      69.177      14.952
  O       39.068      67.572      16.939
  H       39.383      69.818      15.495
  H       35.263      70.119      15.942
  H       35.790      68.961      14.698
  H       36.727      70.460      14.997
  H       39.122      67.795       6.249
  H       40.362      66.694       6.801
  H       40.553      68.415       7.038

 3  4  5  6  7  8  9  10  11  12  13  21  23  27  28  29  30  32 0
 6-311+G(2d,p)
 ****
 34  35 0
 6-311+G(2d,p)
 ****
 1  2  14  15  16  17  18  19  20  22  24  25  26 0
 3-21G
 ****
 31  33  36  37  38  39  40  41  42  43  44  45  46 0
 3-21G
 ****


