%nproc=1
%NoSave
%Mem=1900MB
#P OB98/GEN NMR

erre ene a

0 1
  C       10.814     199.069     100.021
  O        9.394     199.219      99.928
  P        8.611     199.526     101.295
  C        7.235     201.692     100.876
  O        7.240     200.272     100.928
  C        5.918     202.198     100.295
  O        5.775     201.840      98.904
  C        4.690     201.612     100.984
  O        4.482     202.211     102.253
  C        3.608     201.920      99.952
  O        3.193     203.288     100.052
  C        4.359     201.697      98.628
  N        1.626     199.138      95.139
  C        1.643     200.445      95.496
  N        2.398     201.047      96.438
  C        3.212     200.159      97.032
  C        3.311     198.803      96.774
  C        2.468     198.290      95.776
  N        2.438     196.959      95.424
  N        4.259     198.216      97.587
  C        4.709     199.203      98.341
  N        4.114     200.394      98.036
  O        9.498     200.670     101.978
  O        8.467     198.335     102.184
  H        2.456     203.418      99.420
  H        9.969     200.311     102.750
  H        0.955     201.088      94.954
  H        5.457     199.098      99.119
  H        4.095     202.448      97.872
  H        2.718     201.293     100.068
  H        4.802     200.524     101.099
  H        5.905     203.291     100.379
  H        8.070     202.050     100.265
  H        1.746     196.661      94.751
  H        2.996     196.299      95.951
  H        7.398     202.083     101.887
  P        4.123     201.248     103.484
  C        5.586     202.957     104.717
  O        4.418     202.158     104.773
  O        5.351     200.233     103.475
  O        2.767     200.631     103.423
  H        6.206     200.700     103.371
  H        5.652     203.548     105.636
  H        5.541     203.636     103.864
  H        6.472     202.320     104.644
  H       11.216     198.869      99.050
  H       11.045     198.256     100.677
  H       11.243     199.970     100.406

 3  4  5  6  7  8  9  10  11  12  22  25  29  30  31  32 0
 6-311+G(2d,p)
 ****
 33  36  37 0
 6-311+G(2d,p)
 ****
 1  2  13  14  15  16  17  18  19  20  21  23  24  26 0
 3-21G
 ****
 27  28  34  35  38  39  40  41  42  43  44  45  46  47  48 0
 3-21G
 ****


