%nproc=1
%NoSave
%Mem=1900MB
#P OB98/GEN NMR

erre ene a

0 1
  C      172.305     118.500    1668.117
  O      171.144     118.040    1667.393
  P      169.901     118.981    1667.060
  C      169.688     118.647    1664.506
  O      170.040     119.537    1665.561
  C      168.856     119.370    1663.406
  O      167.514     119.610    1663.872
  C      169.398     120.744    1663.012
  O      170.543     120.597    1662.170
  C      168.178     121.338    1662.329
  O      168.046     120.886    1660.971
  C      167.018     120.789    1663.197
  N      166.517     121.772    1664.143
  C      165.934     122.929    1663.595
  O      165.930     123.097    1662.378
  N      165.401     123.863    1664.457
  C      165.498     123.683    1665.722
  N      164.940     124.653    1666.531
  C      166.181     122.529    1666.350
  C      166.646     121.606    1665.517
  O      169.646     120.056    1668.088
  O      168.637     118.002    1666.955
  H      167.145     121.166    1660.689
  H      167.838     118.496    1667.244
  H      166.272     122.453    1667.423
  H      167.149     120.727    1665.873
  H      166.194     120.438    1662.561
  H      168.212     122.450    1662.294
  H      169.655     121.333    1663.912
  H      168.798     118.701    1662.542
  H      164.491     125.427    1666.062
  H      169.084     117.847    1664.925
  H      164.951     124.614    1667.545
  H      170.587     118.217    1664.084
  P      171.698     121.721    1662.185
  C      173.499     120.000    1662.842
  O      172.838     121.221    1663.196
  O      171.214     123.128    1662.421
  O      172.387     121.589    1660.750
  H      172.702     122.469    1660.480
  H      174.473     119.977    1663.329
  H      173.610     119.926    1661.754
  H      172.885     119.158    1663.208
  H      173.003     117.696    1668.219
  H      172.009     118.840    1669.087
  H      172.764     119.305    1667.581

 3  4  5  6  7  8  9  10  11  12  13  23  27  28  29  30  32 0
 6-311+G(2d,p)
 ****
 34  35 0
 6-311+G(2d,p)
 ****
 1  2  14  15  16  17  18  19  20  21  22  24  25  26 0
 3-21G
 ****
 31  33  36  37  38  39  40  41  42  43  44  45  46 0
 3-21G
 ****


