%nproc=1
%NoSave
%Mem=1900MB
#P OB98/GEN NMR

erre ene a

0 1
  C       52.112     479.660     271.295
  O       53.234     478.852     271.622
  P       53.885     477.978     270.436
  C       53.476     475.568     271.320
  O       54.414     476.615     271.095
  C       54.161     474.337     271.923
  O       53.138     473.381     272.326
  C       55.111     473.606     270.953
  O       56.191     473.091     271.748
  C       54.221     472.479     270.432
  O       54.940     471.417     269.819
  C       53.465     472.121     271.697
  N       51.631     467.485     270.538
  C       52.886     467.920     270.805
  N       53.301     469.173     271.119
  C       52.252     470.022     271.152
  C       50.916     469.730     270.884
  C       50.620     468.395     270.569
  N       49.339     467.960     270.283
  N       50.146     470.865     270.996
  C       50.993     471.820     271.314
  N       52.266     471.360     271.442
  O       55.236     478.774     270.105
  O       53.024     477.811     269.219
  H       55.608     471.075     270.434
  H       55.419     478.785     269.154
  H       53.660     467.155     270.763
  H       50.731     472.863     271.453
  H       54.087     471.550     272.412
  H       53.543     472.879     269.672
  H       55.516     474.249     270.167
  H       54.699     474.642     272.818
  H       53.025     475.281     270.366
  H       49.259     467.040     269.878
  H       48.638     468.671     270.108
  H       52.675     475.931     271.971
  P       57.610     473.818     271.689
  C       57.844     473.120     269.223
  O       58.410     473.039     270.521
  O       58.310     473.232     273.005
  O       57.582     475.323     271.614
  H       58.257     472.261     273.038
  H       58.527     472.631     268.528
  H       57.704     474.158     268.925
  H       56.885     472.588     269.203
  H       51.782     480.183     272.168
  H       51.320     479.040     270.930
  H       52.389     480.366     270.540

 3  4  5  6  7  8  9  10  11  12  22  25  29  30  31  32 0
 6-311+G(2d,p)
 ****
 33  36  37 0
 6-311+G(2d,p)
 ****
 1  2  13  14  15  16  17  18  19  20  21  23  24  26 0
 3-21G
 ****
 27  28  34  35  38  39  40  41  42  43  44  45  46  47  48 0
 3-21G
 ****


