%nproc=1
%NoSave
%Mem=1900MB
#P OB98/GEN NMR

erre ene a

0 1
  C     -155.200     103.503    -103.564
  O     -154.883     102.232    -102.989
  P     -153.357     101.999    -102.554
  C     -151.120     101.608    -103.814
  O     -152.439     102.136    -103.862
  C     -150.826     100.815    -105.089
  O     -151.540      99.561    -105.115
  C     -151.242     101.540    -106.362
  O     -150.335     102.583    -106.675
  C     -151.251     100.386    -107.360
  O     -149.914     100.084    -107.794
  C     -151.791      99.228    -106.504
  N     -155.259      96.258    -108.814
  C     -153.907      96.246    -108.826
  N     -153.056      97.074    -108.185
  C     -153.729      97.983    -107.462
  C     -155.104      98.116    -107.350
  C     -155.888      97.202    -108.073
  N     -157.263      97.225    -108.072
  N     -155.423      99.172    -106.519
  C     -154.264      99.679    -106.156
  N     -153.209      98.988    -106.691
  O     -153.304     100.436    -102.215
  O     -152.930     102.831    -101.390
  H     -149.984      99.422    -108.512
  H     -153.224     100.306    -101.251
  H     -153.448      95.468    -109.431
  H     -154.136     100.542    -105.512
  H     -151.274      98.283    -106.712
  H     -151.847     100.596    -108.254
  H     -152.254     101.948    -106.252
  H     -149.748     100.604    -105.118
  H     -151.002     100.961    -102.942
  H     -157.748      96.582    -108.679
  H     -157.741      97.975    -107.594
  H     -150.413     102.434    -103.690
  P     -150.544     103.997    -105.950
  C     -152.399     105.772    -106.055
  O     -151.982     104.486    -106.478
  O     -149.537     104.931    -106.766
  O     -150.367     103.979    -104.470
  H     -149.611     104.789    -107.728
  H     -153.368     105.990    -106.509
  H     -151.676     106.528    -106.374
  H     -152.505     105.791    -104.967
  H     -156.241     103.534    -103.810
  H     -154.620     103.648    -104.451
  H     -154.977     104.278    -102.861

 3  4  5  6  7  8  9  10  11  12  22  25  29  30  31  32 0
 6-311+G(2d,p)
 ****
 33  36  37 0
 6-311+G(2d,p)
 ****
 1  2  13  14  15  16  17  18  19  20  21  23  24  26 0
 3-21G
 ****
 27  28  34  35  38  39  40  41  42  43  44  45  46  47  48 0
 3-21G
 ****


