%nproc=1
%NoSave
%Mem=1900MB
#P OB98/GEN NMR

erre ene a

0 1
  C      128.828    -202.071      29.826
  O      128.276    -200.790      30.147
  P      129.302    -199.733      30.790
  C      128.560    -197.814      29.211
  O      128.704    -198.258      30.554
  C      127.762    -196.511      29.157
  O      126.331    -196.776      29.224
  C      128.104    -195.519      30.292
  O      128.006    -194.186      29.729
  C      126.979    -195.771      31.277
  O      126.827    -194.754      32.253
  C      125.813    -195.956      30.302
  N      121.921    -195.212      33.535
  C      122.950    -194.413      33.164
  N      123.947    -194.690      32.289
  C      123.826    -195.941      31.796
  C      122.830    -196.865      32.094
  C      121.842    -196.465      33.017
  N      120.820    -197.273      33.425
  N      123.059    -198.052      31.402
  C      124.196    -197.848      30.758
  N      124.650    -196.558      30.901
  O      130.577    -199.790      29.820
  O      129.662    -200.040      32.220
  H      127.522    -194.866      32.942
  H      131.274    -200.364      30.199
  H      122.964    -193.428      33.609
  H      124.729    -198.594      30.182
  H      125.489    -195.000      29.873
  H      127.174    -196.711      31.819
  H      129.107    -195.653      30.713
  H      127.950    -196.038      28.180
  H      128.062    -198.577      28.616
  H      120.162    -196.904      34.095
  H      120.725    -198.218      33.070
  H      129.570    -197.692      28.769
  P      129.272    -193.215      29.840
  C      129.249    -192.616      27.339
  O      129.046    -192.139      28.660
  O      130.412    -194.153      29.192
  O      129.596    -192.694      31.195
  H      130.124    -194.529      28.337
  H      128.974    -191.819      26.646
  H      128.603    -193.481      27.148
  H      130.301    -192.893      27.193
  H      128.065    -202.693      29.407
  H      129.212    -202.527      30.715
  H      129.620    -201.951      29.116

 3  4  5  6  7  8  9  10  11  12  22  25  29  30  31  32 0
 6-311+G(2d,p)
 ****
 33  36  37 0
 6-311+G(2d,p)
 ****
 1  2  13  14  15  16  17  18  19  20  21  23  24  26 0
 3-21G
 ****
 27  28  34  35  38  39  40  41  42  43  44  45  46  47  48 0
 3-21G
 ****


