%nproc=1
%NoSave
%Mem=1900MB
#P OB98/GEN NMR

erre ene a

0 1
  C      734.649     817.115     650.992
  O      733.422     817.670     650.554
  H      734.571     816.024     651.017
  H      735.440     817.393     650.284
  H      734.917     817.499     651.974
  P      732.197     817.647     651.580
  C      731.527     815.172     651.156
  O      731.160     816.542     651.032
  C      730.796     814.330     650.106
  O      729.363     814.353     650.411
  C      730.973     814.822     648.651
  O      731.089     813.675     647.803
  C      729.668     815.532     648.363
  O      729.353     815.559     646.972
  C      728.688     814.701     649.187
  N      724.949     817.360     646.987
  C      725.858     816.505     646.483
  N      726.784     815.789     647.148
  C      726.679     815.992     648.474
  C      725.804     816.822     649.137
  C      724.912     817.558     648.328
  N      724.028     818.487     648.824
  N      726.031     816.799     650.507
  C      727.059     815.967     650.659
  N      727.482     815.458     649.460
  O      731.460     819.039     651.266
  O      732.567     817.519     653.024
  H      729.008     814.685     646.712
  H      731.856     819.741     651.809
  H      725.838     816.370     645.406
  H      727.539     815.747     651.592
  H      728.386     813.774     648.687
  H      729.714     816.560     648.737
  H      731.857     815.473     648.516
  H      731.127     813.297     650.206
  H      731.260     814.825     652.157
  H      723.501     819.038     648.152
  H      724.067     818.717     649.805
  H      732.613     815.076     651.023
  P      732.526     812.960     647.704
  C      733.501     814.429     645.775
  O      733.080     813.130     646.214
  O      732.172     811.402     647.798
  O      733.480     813.374     648.789
  H      732.881     810.919     648.252
  H      733.842     814.370     644.762
  H      734.298     814.776     646.400
  H      732.678     815.110     645.836

 6  7  8  9  10  11  12  13  14  15  25  28  32  33  34  35 0
 6-311+G(2d,p)
 ****
 36  39  40 0
 6-311+G(2d,p)
 ****
 1  2  3  4  5  16  17  18  19  20  21  22  23  24 0
 3-21G
 ****
 26  27  29  30  31  37  38  41  42  43  44  45  46  47 0
 3-21G
 ****
 48 0
 3-21G
 ****


