%nproc=1
%NoSave
%Mem=1900MB
#P OB98/GEN NMR

erre ene a

0 1
  C      154.877      41.797      17.649
  O      154.379      40.666      16.912
  P      153.923      40.869      15.384
  C      152.103      39.233      14.458
  O      153.469      39.451      14.790
  C      151.725      37.776      14.730
  O      152.548      36.880      13.947
  C      151.916      37.332      16.175
  O      150.882      37.812      17.019
  C      151.921      35.813      16.024
  O      150.579      35.299      15.974
  C      152.626      35.630      14.666
  N      154.011      35.184      14.813
  C      154.222      33.806      14.804
  O      153.307      32.988      14.744
  N      155.526      33.404      14.904
  C      156.608      34.219      15.073
  O      157.754      33.793      15.177
  C      156.315      35.659      15.155
  C      155.050      36.069      15.027
  O      155.330      41.102      14.645
  O      153.000      42.015      15.129
  H      150.225      35.360      16.885
  H      155.193      41.652      13.849
  H      155.702      32.412      14.870
  H      157.145      36.340      15.313
  H      154.820      37.125      15.083
  H      152.087      34.895      14.055
  H      152.423      35.317      16.858
  H      152.898      37.659      16.533
  H      150.678      37.631      14.420
  H      151.952      39.450      13.394
  H      151.480      39.913      15.047
  P      151.176      37.789      18.597
  C      148.673      37.192      19.037
  O      149.760      38.048      19.296
  O      151.985      39.161      18.777
  O      151.917      36.570      19.040
  H      151.679      39.851      18.160
  H      149.001      36.159      18.864
  H      148.133      37.547      18.155
  H      147.996      37.203      19.898
  H      155.134      41.491      18.642
  H      154.122      42.554      17.693
  H      155.745      42.187      17.160

 3  4  5  6  7  8  9  10  11  12  13  23  28  29  30  31  32 0
 6-311+G(2d,p)
 ****
 33  34 0
 6-311+G(2d,p)
 ****
 1  2  14  15  16  17  18  19  20  21  22  24  25  26 0
 3-21G
 ****
 27  35  36  37  38  39  40  41  42  43  44  45 0
 3-21G
 ****


