%nproc=1
%NoSave
%Mem=1900MB
#P OB98/GEN NMR

erre ene a

0 1
  C     -892.490     143.406     217.225
  O     -892.800     144.669     217.780
  H     -893.420     142.962     216.846
  H     -892.080     142.747     217.987
  H     -891.790     143.511     216.394
  P     -891.600     145.589     218.325
  C     -892.470     147.364     216.689
  O     -892.010     147.108     217.998
  C     -893.360     148.617     216.661
  O     -894.680     148.265     217.161
  C     -892.820     149.765     217.534
  O     -893.090     151.002     216.873
  C     -893.660     149.669     218.798
  O     -893.780     150.927     219.462
  C     -895.000     149.150     218.245
  N     -898.950     149.527     221.373
  C     -898.500     150.399     220.403
  N     -899.180     151.548     220.247
  N     -897.450     150.159     219.636
  C     -896.870     148.959     219.889
  C     -897.230     148.014     220.829
  C     -898.370     148.301     221.674
  O     -898.800     147.570     222.565
  N     -896.370     146.939     220.797
  C     -895.500     147.235     219.846
  N     -895.760     148.456     219.272
  O     -890.240     145.197     217.868
  O     -891.750     145.506     219.915
  H     -892.870     151.210     219.709
  H     -891.100     144.868     220.286
  H     -899.740     149.767     221.938
  H     -894.670     146.610     219.533
  H     -895.640     149.959     217.869
  H     -893.210     148.948     219.486
  H     -900.000     151.790     220.783
  H     -891.750     149.678     217.740
  H     -898.880     152.194     219.520
  H     -893.480     148.937     215.626
  H     -893.060     146.495     216.352
  H     -891.620     147.497     216.012
  P     -891.860     151.829     216.263
  C     -893.060     152.843     214.215
  O     -892.450     153.091     215.477
  O     -890.850     151.029     215.508
  O     -891.210     152.504     217.572
  H     -890.260     152.615     217.419
  H     -893.409     153.765     213.800
  H     -893.885     152.174     214.343
  H     -892.344     152.403     213.553

 6  7  8  9  10  11  12  13  14  15  26  29  33  34 0
 6-311+G(2d,p)
 ****
 36  38  39  40  41 0
 6-311+G(2d,p)
 ****
 1  2  3  4  5  16  17  18  19  20  21  22  23  24  25 0
 3-21G
 ****
 27  28  30  31  32  35  37  42  43  44  45  46  47 0
 3-21G
 ****
 48  49 0
 3-21G
 ****


