%nproc=1
%NoSave
%Mem=1900MB
#P OB98/GEN NMR

erre ene a

0 1
  C      990.478    -759.565    -837.325
  O      991.355    -759.247    -836.237
  P      990.835    -759.599    -834.758
  C      989.891    -757.268    -833.939
  O      989.627    -758.577    -834.422
  C      988.657    -756.376    -834.060
  O      987.616    -756.881    -833.181
  C      988.866    -754.920    -833.648
  O      987.807    -754.114    -834.224
  C      988.689    -754.981    -832.156
  O      988.431    -753.700    -831.584
  C      987.548    -756.003    -832.008
  N      987.654    -756.857    -830.777
  C      987.564    -756.249    -829.530
  O      987.358    -755.049    -829.390
  N      987.703    -757.058    -828.437
  C      987.913    -758.404    -828.478
  O      988.155    -759.069    -827.458
  C      987.893    -759.041    -829.813
  C      987.775    -758.244    -830.870
  O      992.037    -759.099    -833.827
  O      990.508    -761.036    -834.548
  H      988.207    -753.873    -830.641
  H      992.530    -759.858    -833.479
  H      987.698    -756.624    -827.537
  H      987.988    -760.121    -829.856
  H      987.768    -758.707    -831.870
  H      986.554    -755.534    -831.979
  H      989.607    -755.372    -831.681
  H      989.838    -754.496    -833.926
  H      988.275    -756.423    -835.113
  H      990.747    -756.855    -834.467
  H      990.188    -757.335    -832.871
  P      988.090    -753.363    -835.627
  C      988.729    -751.094    -834.578
  O      989.191    -752.218    -835.304
  O      986.901    -752.912    -836.372
  O      988.957    -754.442    -836.436
  H      988.925    -754.253    -837.393
  H      989.549    -750.676    -834.018
  H      987.904    -751.322    -833.922
  H      988.399    -750.323    -835.325
  H      990.939    -759.283    -838.249
  H      989.557    -759.032    -837.208
  H      990.283    -760.617    -837.330

 3  4  5  6  7  8  9  10  11  12  13  23  28  29  30  31  32 0
 6-311+G(2d,p)
 ****
 33  34 0
 6-311+G(2d,p)
 ****
 1  2  14  15  16  17  18  19  20  21  22  24  25  26  27 0
 3-21G
 ****
 35  36  37  38  39  40  41  42  43  44  45 0
 3-21G
 ****


