%nproc=1
%NoSave
%Mem=1900MB
#P OB98/GEN NMR

erre ene a

0 1
  C      -29.561     -19.094      28.922
  O      -28.579     -19.915      28.322
  H      -30.513     -19.630      28.923
  H      -29.675     -18.175      28.341
  H      -29.290     -18.853      29.954
  P      -27.048     -19.468      28.510
  C      -25.515     -19.075      30.566
  O      -26.842     -19.199      30.079
  C      -25.508     -18.337      31.901
  O      -25.946     -16.973      31.724
  C      -26.419     -18.947      32.961
  O      -25.787     -20.025      33.637
  C      -26.607     -17.758      33.888
  O      -25.429     -17.588      34.706
  C      -26.725     -16.594      32.894
  N      -30.903     -13.912      33.926
  C      -29.718     -14.011      34.628
  N      -29.638     -13.299      35.773
  N      -28.704     -14.743      34.248
  C      -28.935     -15.418      33.097
  C      -30.068     -15.408      32.316
  C      -31.174     -14.581      32.739
  O      -32.242     -14.451      32.147
  N      -29.933     -16.221      31.221
  C      -28.729     -16.740      31.353
  N      -28.083     -16.288      32.477
  O      -27.028     -18.000      27.866
  O      -26.042     -20.358      27.863
  H      -24.677     -17.460      34.099
  H      -26.628     -18.052      26.977
  H      -31.657     -13.342      34.268
  H      -28.277     -17.439      30.663
  H      -26.297     -15.666      33.288
  H      -27.450     -17.884      34.570
  H      -30.389     -12.732      36.135
  H      -27.389     -19.243      32.542
  H      -28.776     -13.353      36.302
  H      -24.470     -18.301      32.259
  H      -24.918     -18.517      29.837
  H      -25.086     -20.075      30.690
  P      -26.714     -21.157      34.293
  C      -27.810     -23.327      33.390
  O      -27.311     -22.032      33.085
  O      -27.977     -20.320      34.809
  O      -26.086     -21.931      35.400
  H      -27.993     -20.309      35.786
  H      -28.172     -23.789      32.496
  H      -28.608     -23.244      34.097
  H      -27.025     -23.923      33.806

 6  7  8  9  10  11  12  13  14  15  26  29  33  34 0
 6-311+G(2d,p)
 ****
 36  38  39  40  41 0
 6-311+G(2d,p)
 ****
 1  2  3  4  5  16  17  18  19  20  21  22  23  24  25 0
 3-21G
 ****
 27  28  30  31  32  35  37  42  43  44  45  46  47 0
 3-21G
 ****
 48  49 0
 3-21G
 ****


