%nproc=1
%NoSave
%Mem=1900MB
#P OB98/GEN NMR

erre ene a

0 1
  C      501.902    -393.532     180.776
  O      502.792    -394.631     180.808
  P      504.381    -394.477     180.806
  C      504.549    -396.253     178.912
  O      505.009    -395.832     180.189
  C      505.164    -397.602     178.468
  O      506.542    -397.408     178.104
  C      505.161    -398.584     179.659
  O      504.004    -399.332     179.960
  C      506.434    -399.413     179.483
  O      506.183    -400.675     178.859
  C      507.309    -398.531     178.585
  N      511.075    -399.508     181.838
  C      510.213    -400.393     181.219
  N      510.253    -401.666     181.666
  N      509.390    -400.045     180.258
  C      509.408    -398.713     179.987
  C      510.227    -397.751     180.531
  C      511.166    -398.152     181.554
  O      511.883    -397.386     182.190
  N      509.913    -396.494     180.068
  C      508.882    -396.696     179.271
  N      508.507    -398.019     179.224
  O      505.010    -393.879     182.029
  O      504.593    -393.432     179.595
  H      506.960    -401.234     179.000
  H      505.357    -392.865     179.830
  H      511.640    -399.817     182.628
  H      508.338    -395.921     178.741
  H      507.631    -399.087     177.698
  H      506.890    -399.627     180.461
  H      510.758    -401.939     182.491
  H      505.339    -397.988     180.558
  H      509.510    -402.302     181.354
  H      504.662    -397.987     177.580
  H      504.805    -395.469     178.190
  H      503.462    -396.348     178.924
  P      502.847    -398.917     180.992
  C      503.047    -401.047     182.397
  O      502.196    -400.252     181.589
  O      501.678    -398.342     180.051
  O      503.244    -397.891     182.007
  H      501.094    -397.754     180.574
  H      502.620    -402.050     182.498
  H      503.130    -400.593     183.400
  H      504.052    -401.122     181.962
  H      500.893    -393.889     180.785
  H      502.071    -392.962     179.886
  H      502.068    -392.913     181.633

 3  4  5  6  7  8  9  10  11  12  23  26  30  31 0
 6-311+G(2d,p)
 ****
 33  35  36  37  38 0
 6-311+G(2d,p)
 ****
 1  2  13  14  15  16  17  18  19  20  21  22  24  25 0
 3-21G
 ****
 27  28  29  32  34  39  40  41  42  43  44  45  46  47  48  49 0
 3-21G
 ****


