%nproc=1
%NoSave
%Mem=1900MB
#P OB98/GEN NMR

erre ene a

0 1
  C     -105.657      69.851     -77.207
  O     -105.201      69.001     -78.244
  P     -106.247      68.357     -79.270
  C     -105.372      69.486     -81.446
  O     -106.403      69.388     -80.487
  C     -105.887      70.106     -82.751
  O     -107.072      69.376     -83.152
  C     -106.312      71.566     -82.644
  O     -106.361      72.123     -83.959
  C     -107.714      71.441     -82.092
  O     -108.490      72.614     -82.320
  C     -108.235      70.157     -82.785
  N     -109.113      69.379     -81.894
  C     -110.432      69.809     -81.778
  O     -110.892      70.741     -82.436
  N     -111.182      69.186     -80.819
  C     -110.726      68.232     -79.958
  O     -111.301      67.912     -78.925
  C     -109.412      67.657     -80.286
  C     -108.664      68.265     -81.210
  O     -107.636      68.481     -78.485
  O     -105.956      66.951     -79.665
  H     -108.095      73.329     -81.768
  H     -107.842      67.643     -78.030
  H     -112.090      69.595     -80.637
  H     -109.076      66.798     -79.722
  H     -107.668      67.895     -81.436
  H     -108.800      70.394     -83.695
  H     -107.660      71.287     -81.007
  H     -105.672      72.174     -81.998
  H     -105.131      69.979     -83.535
  H     -104.954      68.492     -81.628
  H     -104.552      70.101     -81.059
  P     -106.064      73.690     -84.121
  C     -103.513      73.469     -84.304
  O     -104.596      73.934     -83.525
  O     -107.124      74.612     -83.619
  O     -105.834      73.852     -85.700
  H     -105.940      74.787     -85.954
  H     -102.642      74.100     -84.109
  H     -103.743      73.503     -85.372
  H     -103.278      72.441     -84.016
  H     -104.823      70.184     -76.626
  H     -106.337      69.314     -76.579
  H     -106.156      70.697     -77.632

 3  4  5  6  7  8  9  10  11  12  13  23  28  29  30  31  32 0
 6-311+G(2d,p)
 ****
 33  34 0
 6-311+G(2d,p)
 ****
 1  2  14  15  16  17  18  19  20  21  22  24  25  26  27 0
 3-21G
 ****
 35  36  37  38  39  40  41  42  43  44  45 0
 3-21G
 ****


