%nproc=1
%NoSave
%Mem=1900MB
#P OB98/GEN NMR

erre ene a

0 1
  C      -73.474     -23.580     215.606
  O      -72.710     -22.412     215.835
  H      -74.532     -23.305     215.585
  H      -73.310     -24.298     216.415
  H      -73.203     -24.030     214.649
  P      -71.111     -22.558     215.721
  C      -70.730     -22.366     218.313
  O      -70.634     -23.150     217.137
  C      -69.869     -22.965     219.430
  O      -70.574     -24.096     220.006
  C      -68.499     -23.460     218.956
  O      -67.538     -23.187     219.980
  C      -68.694     -24.961     218.811
  O      -67.457     -25.669     218.905
  C      -69.711     -25.251     219.924
  N      -70.476     -26.473     219.676
  C      -69.844     -27.686     219.986
  O      -68.691     -27.691     220.418
  N      -70.512     -28.861     219.750
  C      -71.689     -28.832     219.188
  N      -72.289     -30.035     218.963
  C      -72.371     -27.581     218.800
  C      -71.718     -26.452     219.079
  O      -70.639     -21.030     215.766
  O      -70.651     -23.316     214.520
  H      -67.602     -26.577     218.552
  H      -71.125     -20.489     216.416
  H      -73.343     -27.612     218.323
  H      -72.153     -25.484     218.834
  H      -69.203     -25.354     220.893
  H      -69.135     -25.187     217.831
  H      -68.174     -23.006     218.019
  H      -69.767     -22.217     220.228
  H      -71.781     -30.871     219.227
  H      -71.773     -22.309     218.647
  H      -73.176     -30.134     218.489
  H      -70.389     -21.353     218.076
  P      -66.530     -21.956     219.801
  C      -64.788     -23.692     219.003
  O      -65.341     -22.395     218.811
  O      -66.081     -21.294     221.065
  O      -67.372     -20.934     218.889
  H      -67.182     -20.024     219.207
  H      -64.012     -23.859     218.285
  H      -65.554     -24.428     218.878
  H      -64.382     -23.764     219.990

 6  7  8  9  10  11  12  13  14  15  16  26  30  31  32  33  35 0
 6-311+G(2d,p)
 ****
 37  38 0
 6-311+G(2d,p)
 ****
 1  2  3  4  5  17  18  19  20  21  22  23  24  25 0
 3-21G
 ****
 27  28  29  34  36  39  40  41  42  43  44  45  46 0
 3-21G
 ****


