%nproc=1
%NoSave
%Mem=1900MB
#P OB98/GEN NMR

erre ene a

0 1
  C     -719.282     120.235     805.983
  O     -718.211     119.829     806.810
  H     -720.199     120.245     806.575
  H     -719.404     119.544     805.148
  H     -719.098     121.246     805.601
  P     -716.783     119.645     806.093
  C     -715.627     121.653     807.291
  O     -716.172     121.132     806.089
  C     -714.149     121.982     807.093
  O     -713.974     122.852     805.953
  C     -713.496     122.715     808.271
  O     -713.181     121.875     809.355
  C     -712.249     123.246     807.584
  O     -711.313     122.171     807.396
  C     -712.835     123.721     806.240
  N     -713.261     125.124     806.255
  C     -712.430     126.038     805.591
  O     -711.396     125.655     805.036
  N     -712.769     127.369     805.614
  C     -713.842     127.763     806.211
  N     -714.124     129.098     806.197
  C     -714.754     126.837     806.914
  C     -714.411     125.550     806.895
  O     -717.167     119.417     804.558
  O     -715.884     118.599     806.671
  H     -711.629     121.648     806.645
  H     -716.349     119.437     803.998
  H     -715.642     127.199     807.411
  H     -715.030     124.811     807.375
  H     -712.111     123.588     805.418
  H     -711.744     124.023     808.161
  H     -714.109     123.569     808.596
  H     -713.621     121.045     806.880
  H     -713.452     129.712     805.769
  H     -715.745     120.897     808.079
  H     -714.857     129.502     806.763
  H     -716.161     122.561     807.592
  P     -713.411     122.456     810.835
  C     -714.296     120.142     811.646
  O     -714.530     121.539     811.533
  O     -714.182     123.832     810.562
  O     -712.160     122.662     811.632
  H     -713.929     124.510     811.223
  H     -715.130     119.679     812.130
  H     -713.410     119.974     812.223
  H     -714.171     119.721     810.670

 6  7  8  9  10  11  12  13  14  15  16  26  30  31  32  33  35 0
 6-311+G(2d,p)
 ****
 37  38 0
 6-311+G(2d,p)
 ****
 1  2  3  4  5  17  18  19  20  21  22  23  24  25 0
 3-21G
 ****
 27  28  29  34  36  39  40  41  42  43  44  45  46 0
 3-21G
 ****


