%nproc=1
%NoSave
%Mem=1900MB
#P OB98/GEN NMR

erre ene a

0 1
  C       56.983      15.811    -329.198
  O       56.386      14.598    -329.610
  P       54.915      14.203    -329.107
  C       53.919      13.807    -331.454
  O       54.336      13.209    -330.228
  C       53.868      12.771    -332.576
  O       55.189      12.526    -333.099
  C       53.333      11.414    -332.145
  O       51.923      11.448    -332.025
  C       53.852      10.522    -333.264
  O       52.996      10.579    -334.417
  C       55.225      11.163    -333.574
  N       56.331      10.415    -332.992
  C       56.801       9.331    -333.745
  O       56.263       9.037    -334.811
  N       57.834       8.579    -333.242
  C       58.336       8.871    -332.082
  N       59.350       8.080    -331.633
  C       57.848       9.985    -331.244
  C       56.854      10.707    -331.756
  O       54.033      15.349    -328.748
  O       55.208      13.217    -327.877
  H       53.507      10.192    -335.156
  H       55.520      13.714    -327.082
  H       58.293      10.181    -330.278
  H       56.434      11.540    -331.208
  H       55.384      11.219    -334.660
  H       53.914       9.475    -332.962
  H       53.795      11.117    -331.197
  H       53.251      13.180    -333.387
  H       59.632       7.307    -332.226
  H       54.638      14.589    -331.716
  H       59.787       8.197    -330.732
  H       52.939      14.276    -331.313
  P       51.172      10.373    -331.109
  C       49.340      11.735    -329.939
  O       49.639      10.823    -330.979
  O       51.852      10.041    -329.819
  O       51.087       9.077    -332.052
  H       51.324       8.288    -331.526
  H       48.377      12.207    -330.155
  H       50.108      12.507    -329.859
  H       49.263      11.194    -328.991
  H       57.956      15.896    -329.634
  H       57.068      15.823    -328.131
  H       56.377      16.633    -329.516

 3  4  5  6  7  8  9  10  11  12  13  23  27  28  29  30  32 0
 6-311+G(2d,p)
 ****
 34  35 0
 6-311+G(2d,p)
 ****
 1  2  14  15  16  17  18  19  20  21  22  24  25  26 0
 3-21G
 ****
 31  33  36  37  38  39  40  41  42  43  44  45  46 0
 3-21G
 ****


