%nproc=1
%NoSave
%Mem=1900MB
#P OB98/GEN NMR

erre ene a

0 1
  C      254.353    -282.829     241.313
  O      254.338    -282.032     240.145
  H      253.328    -283.086     241.592
  H      254.901    -283.750     241.104
  H      254.843    -282.302     242.137
  P      253.853    -280.511     240.297
  C      255.061    -278.345     239.528
  O      254.659    -279.664     239.194
  C      255.626    -277.628     238.303
  O      256.910    -278.234     237.968
  C      254.731    -277.707     237.056
  O      254.798    -276.452     236.371
  C      255.413    -278.769     236.206
  O      255.131    -278.623     234.820
  C      256.877    -278.545     236.564
  N      260.507    -280.378     233.509
  C      260.101    -279.118     233.771
  N      259.156    -278.712     234.645
  C      258.661    -279.757     235.333
  C      258.984    -281.097     235.181
  C      259.943    -281.399     234.198
  N      260.316    -282.685     233.877
  N      258.216    -281.871     236.030
  C      257.433    -281.020     236.663
  N      257.664    -279.731     236.270
  O      254.537    -280.071     241.681
  O      252.376    -280.305     240.314
  H      255.510    -277.777     234.507
  H      253.949    -280.297     242.422
  H      260.587    -278.334     233.199
  H      256.668    -281.282     237.379
  H      257.325    -277.707     236.013
  H      255.076    -279.763     236.525
  H      253.689    -277.954     237.276
  H      255.827    -276.585     238.570
  H      255.836    -278.394     240.300
  H      260.932    -282.811     233.088
  H      259.827    -283.456     234.304
  H      254.204    -277.793     239.927
  P      253.929    -275.240     236.963
  C      254.772    -273.185     238.322
  O      254.884    -273.967     237.138
  O      253.643    -275.699     238.471
  O      252.661    -274.984     236.212
  H      252.772    -275.370     238.761
  H      255.474    -272.378     238.284
  H      254.978    -273.797     239.175
  H      253.780    -272.792     238.397

 6  7  8  9  10  11  12  13  14  15  25  28  32  33  34  35 0
 6-311+G(2d,p)
 ****
 36  39  40 0
 6-311+G(2d,p)
 ****
 1  2  3  4  5  16  17  18  19  20  21  22  23  24 0
 3-21G
 ****
 26  27  29  30  31  37  38  41  42  43  44  45  46  47 0
 3-21G
 ****
 48 0
 3-21G
 ****


