%nproc=1
%NoSave
%Mem=1900MB
#P OB98/GEN NMR

erre ene a

0 1
  C     -175.836     336.086    -446.129
  O     -176.398     334.836    -445.724
  P     -177.840     334.467    -446.319
  C     -178.491     332.992    -444.280
  O     -178.297     333.065    -445.688
  C     -178.876     331.571    -443.877
  O     -180.109     331.150    -444.504
  C     -177.845     330.525    -444.283
  O     -176.711     330.572    -443.433
  C     -178.670     329.248    -444.169
  O     -178.768     328.831    -442.796
  C     -180.047     329.713    -444.669
  N     -181.874     326.139    -447.842
  C     -181.759     326.177    -446.496
  N     -181.258     327.166    -445.727
  C     -180.860     328.205    -446.483
  C     -180.920     328.312    -447.862
  C     -181.454     327.210    -448.556
  N     -181.558     327.166    -449.928
  N     -180.418     329.526    -448.281
  C     -180.039     330.132    -447.170
  N     -180.299     329.377    -446.060
  O     -177.528     334.113    -447.847
  O     -178.838     335.571    -446.199
  H     -179.402     328.088    -442.764
  H     -177.867     334.818    -448.430
  H     -182.112     325.296    -445.970
  H     -179.577     331.109    -447.125
  H     -180.868     329.283    -444.083
  H     -178.248     328.412    -444.735
  H     -177.534     330.681    -445.324
  H     -179.016     331.550    -442.788
  H     -179.273     333.690    -443.971
  H     -181.878     326.310    -450.352
  H     -181.169     327.922    -450.474
  H     -177.572     333.310    -443.783
  P     -175.467     329.626    -443.794
  C     -174.312     328.991    -441.587
  O     -174.400     329.943    -442.633
  O     -174.845     330.376    -445.059
  O     -175.807     328.185    -443.989
  H     -174.782     331.337    -444.912
  H     -173.533     329.310    -440.892
  H     -174.052     328.008    -441.991
  H     -175.263     328.937    -441.053
  H     -174.879     336.213    -445.667
  H     -176.485     336.882    -445.831
  H     -175.722     336.098    -447.193

 3  4  5  6  7  8  9  10  11  12  22  25  29  30  31  32 0
 6-311+G(2d,p)
 ****
 33  36  37 0
 6-311+G(2d,p)
 ****
 1  2  13  14  15  16  17  18  19  20  21  23  24  26 0
 3-21G
 ****
 27  28  34  35  38  39  40  41  42  43  44  45  46  47  48 0
 3-21G
 ****


