%nproc=1
%NoSave
%Mem=1900MB
#P OB98/GEN NMR

erre ene a

0 1
  C       26.865    -135.862     129.405
  O       26.942    -135.146     130.621
  H       25.946    -135.581     128.886
  H       26.838    -136.937     129.607
  H       27.720    -135.626     128.763
  P       28.320    -135.224     131.438
  C       29.652    -137.111     132.631
  O       28.497    -136.757     131.884
  C       29.340    -138.298     133.546
  O       28.413    -137.853     134.578
  C       28.688    -139.488     132.825
  O       29.173    -140.697     133.417
  C       27.214    -139.326     133.157
  O       26.464    -140.531     133.064
  C       27.300    -138.773     134.583
  N       26.069    -138.103     135.001
  C       25.066    -138.897     135.556
  O       25.174    -140.098     135.801
  N       23.892    -138.249     135.839
  C       23.619    -136.931     135.605
  O       22.537    -136.415     135.860
  C       24.712    -136.151     135.010
  C       25.865    -136.762     134.734
  O       27.969    -134.476     132.809
  O       29.509    -134.635     130.751
  H       28.152    -133.519     132.734
  H       25.523    -140.296     133.190
  H       23.157    -138.807     136.242
  H       24.528    -135.106     134.799
  H       26.686    -136.218     134.275
  H       27.538    -139.577     135.289
  H       26.762    -138.592     132.480
  H       28.868    -139.511     131.742
  H       30.262    -138.606     134.052
  H       29.963    -136.259     133.247
  H       30.467    -137.365     131.943
  P       29.739    -141.832     132.430
  C       28.596    -143.740     131.034
  O       28.460    -142.698     131.996
  O       30.528    -142.768     133.452
  O       30.557    -141.277     131.314
  H       30.103    -142.828     134.327
  H       27.645    -144.203     130.872
  H       29.291    -144.470     131.394
  H       28.954    -143.330     130.113

 6  7  8  9  10  11  12  13  14  15  16  27  31  32  33  34  35 0
 6-311+G(2d,p)
 ****
 36  37 0
 6-311+G(2d,p)
 ****
 1  2  3  4  5  17  18  19  20  21  22  23  24  25 0
 3-21G
 ****
 26  28  29  30  38  39  40  41  42  43  44  45 0
 3-21G
 ****


