%nproc=1
%NoSave
%Mem=1900MB
#P OB98/GEN NMR

erre ene a

0 1
  C     -857.745     264.649      -2.749
  O     -858.879     263.954      -3.271
  P     -859.799     264.727      -4.333
  C     -861.981     264.096      -3.014
  O     -861.240     264.043      -4.240
  C     -863.184     263.162      -3.083
  O     -864.100     263.579      -4.152
  C     -862.830     261.706      -3.409
  O     -862.265     261.069      -2.282
  C     -864.192     261.174      -3.837
  O     -864.992     260.850      -2.700
  C     -864.791     262.380      -4.598
  N     -864.735     262.244      -6.047
  C     -865.703     261.402      -6.601
  O     -866.522     260.775      -5.938
  N     -865.660     261.266      -7.966
  C     -864.756     261.878      -8.803
  O     -864.780     261.739     -10.019
  C     -863.741     262.724      -8.143
  C     -863.771     262.864      -6.819
  O     -859.192     264.190      -5.711
  O     -859.773     266.211      -4.161
  H     -858.904     263.274      -5.669
  H     -865.905     260.693      -3.036
  H     -866.344     260.677      -8.397
  H     -863.005     263.188      -8.775
  H     -863.039     263.472      -6.323
  H     -865.839     262.522      -4.297
  H     -864.111     260.261      -4.441
  H     -862.130     261.676      -4.249
  H     -863.718     263.221      -2.138
  H     -862.324     265.118      -2.846
  H     -861.323     263.819      -2.194
  P     -860.663     261.033      -2.189
  C     -860.647     258.496      -2.826
  O     -860.246     259.497      -1.928
  O     -860.415     261.760      -0.787
  O     -859.979     261.684      -3.349
  H     -861.021     261.445      -0.083
  H     -860.000     257.629      -2.675
  H     -860.544     258.826      -3.867
  H     -861.678     258.194      -2.631
  H     -857.227     264.018      -2.057
  H     -858.070     265.536      -2.247
  H     -857.088     264.913      -3.551

 3  4  5  6  7  8  9  10  11  12  13  24  28  29  30  31  32 0
 6-311+G(2d,p)
 ****
 33  34 0
 6-311+G(2d,p)
 ****
 1  2  14  15  16  17  18  19  20  21  22  23  25  26  27 0
 3-21G
 ****
 35  36  37  38  39  40  41  42  43  44  45 0
 3-21G
 ****


