%nproc=1
%NoSave
%Mem=1900MB
#P OB98/GEN NMR

erre ene a

0 1
  C     -341.612     136.249     206.038
  O     -341.539     136.486     204.625
  P     -340.217     136.166     203.774
  C     -341.112     134.946     201.689
  O     -340.596     136.165     202.214
  C     -341.847     135.165     200.364
  O     -343.086     135.868     200.576
  C     -341.068     135.982     199.336
  O     -340.091     135.180     198.698
  C     -342.194     136.470     198.429
  O     -342.566     135.443     197.493
  C     -343.328     136.712     199.435
  N     -344.464     141.452     197.887
  C     -344.488     140.265     197.248
  N     -344.165     139.043     197.726
  C     -343.809     139.123     199.021
  C     -343.736     140.265     199.804
  C     -344.082     141.479     199.186
  N     -344.043     142.690     199.836
  N     -343.307     139.957     201.078
  C     -343.145     138.647     201.068
  N     -343.436     138.099     199.850
  O     -339.477     134.949     204.224
  O     -339.306     137.475     203.933
  H     -343.362     135.754     197.023
  H     -338.366     137.231     203.849
  H     -344.807     140.296     196.210
  H     -342.822     138.055     201.916
  H     -344.300     136.417     199.025
  H     -341.918     137.356     197.852
  H     -340.596     136.841     199.823
  H     -342.100     134.178     199.955
  H     -341.803     134.518     202.425
  H     -344.274     143.519     199.315
  H     -343.714     142.723     200.790
  H     -340.278     134.249     201.542
  P     -338.812     135.864     198.020
  C     -336.875     136.085     199.687
  O     -337.515     135.253     198.737
  O     -338.846     137.354     197.932
  O     -338.754     135.198     196.563
  H     -338.351     135.828     195.938
  H     -336.246     136.812     199.169
  H     -336.245     135.462     200.329
  H     -337.608     136.608     200.308
  H     -342.579     136.532     206.398
  H     -340.863     136.828     206.536
  H     -341.449     135.210     206.234

 3  4  5  6  7  8  9  10  11  12  22  25  29  30  31  32 0
 6-311+G(2d,p)
 ****
 33  36  37 0
 6-311+G(2d,p)
 ****
 1  2  13  14  15  16  17  18  19  20  21  23  24  26 0
 3-21G
 ****
 27  28  34  35  38  39  40  41  42  43  44  45  46  47  48 0
 3-21G
 ****


