%nproc=1
%NoSave
%Mem=1900MB
#P OB98/GEN NMR

erre ene a

0 1
  C      146.071     102.943    -899.104
  O      145.967     103.897    -898.044
  P      144.949     105.126    -898.194
  C      143.604     106.623    -896.574
  O      144.788     105.862    -896.784
  C      143.474     107.029    -895.094
  O      143.334     105.855    -894.234
  C      144.726     107.723    -894.564
  O      144.989     109.023    -895.064
  C      144.582     107.570    -893.074
  O      143.723     108.562    -892.504
  C      143.910     106.161    -892.954
  N      144.862     105.115    -892.544
  C      144.871     104.818    -891.174
  O      144.180     105.401    -890.354
  N      145.737     103.822    -890.804
  C      146.609     103.158    -891.634
  O      147.385     102.302    -891.224
  C      146.577     103.547    -893.054
  C      145.706     104.492    -893.424
  O      143.682     104.846    -898.914
  O      145.838     106.200    -899.024
  H      144.240     109.388    -892.454
  H      145.254     106.621    -899.694
  H      145.766     103.593    -889.824
  H      147.242     103.047    -893.724
  H      145.663     104.790    -894.474
  H      143.086     106.189    -892.224
  H      145.549     107.649    -892.544
  H      145.603     107.123    -894.864
  H      142.590     107.639    -894.974
  H      142.723     106.032    -896.884
  H      143.620     107.509    -897.224
  P      146.376     109.431    -895.764
  C      146.890     111.418    -897.374
  O      146.309     110.987    -896.164
  O      146.932     108.494    -896.784
  O      147.370     109.473    -894.494
  H      148.266     109.192    -894.794
  H      146.769     112.504    -897.464
  H      146.426     110.928    -898.224
  H      147.965     111.194    -897.364
  H      146.790     102.195    -898.841
  H      146.382     103.438    -900.000
  H      145.119     102.482    -899.263

 3  4  5  6  7  8  9  10  11  12  13  23  28  29  30  31  32 0
 6-311+G(2d,p)
 ****
 33  34 0
 6-311+G(2d,p)
 ****
 1  2  14  15  16  17  18  19  20  21  22  24  25  26  27 0
 3-21G
 ****
 35  36  37  38  39  40  41  42  43  44  45 0
 3-21G
 ****


