%nproc=1
%NoSave
%Mem=1900MB
#P OB98/GEN NMR

erre ene a

0 1
  C     -154.938      72.004    -150.222
  O     -153.669      72.510    -150.632
  P     -153.037      73.736    -149.816
  C     -152.310      75.013    -151.940
  O     -151.892      74.415    -150.718
  C     -151.161      75.003    -152.965
  O     -151.236      73.774    -153.739
  C     -151.204      76.141    -153.992
  O     -150.546      77.365    -153.669
  C     -150.426      75.523    -155.152
  O     -149.013      75.680    -154.933
  C     -150.792      74.043    -155.086
  N     -151.707      72.013    -159.694
  C     -150.559      72.247    -159.021
  N     -150.402      72.791    -157.797
  C     -151.592      73.097    -157.253
  C     -152.844      72.911    -157.817
  C     -152.880      72.344    -159.102
  N     -154.048      72.113    -159.792
  N     -153.833      73.351    -156.963
  C     -153.185      73.811    -155.909
  N     -151.831      73.667    -156.031
  O     -152.657      73.455    -148.402
  O     -154.207      74.833    -149.882
  H     -148.565      75.280    -155.702
  H     -154.239      75.313    -149.031
  H     -149.645      71.963    -159.536
  H     -153.655      74.254    -155.042
  H     -149.934      73.391    -155.281
  H     -150.650      76.008    -156.110
  H     -152.233      76.350    -154.304
  H     -150.202      75.012    -152.433
  H     -152.625      76.043    -151.755
  H     -153.984      71.744    -160.726
  H     -154.929      72.406    -159.390
  H     -153.189      74.471    -152.288
  P     -151.293      78.775    -153.811
  C     -149.095      79.746    -154.849
  O     -150.126      79.872    -153.896
  O     -152.328      79.048    -152.777
  O     -151.847      78.725    -155.312
  H     -151.159      78.757    -155.993
  H     -148.535      80.686    -154.888
  H     -149.505      79.540    -155.841
  H     -148.416      78.942    -154.552
  H     -155.222      71.194    -150.860
  H     -155.670      72.782    -150.286
  H     -154.874      71.657    -149.212

 3  4  5  6  7  8  9  10  11  12  22  25  29  30  31  32 0
 6-311+G(2d,p)
 ****
 33  36  37 0
 6-311+G(2d,p)
 ****
 1  2  13  14  15  16  17  18  19  20  21  23  24  26 0
 3-21G
 ****
 27  28  34  35  38  39  40  41  42  43  44  45  46  47  48 0
 3-21G
 ****


