%nproc=1
%NoSave
%Mem=1900MB
#P OB98/GEN NMR

erre ene a

0 1
  C      -11.123    -207.423    -324.264
  O      -12.243    -206.599    -323.996
  P      -11.954    -205.091    -323.528
  C      -10.372    -205.362    -321.477
  O      -11.696    -205.138    -321.946
  C      -10.114    -204.528    -320.225
  O      -10.215    -203.126    -320.531
  C      -11.095    -204.771    -319.088
  O      -10.823    -205.994    -318.424
  C      -10.862    -203.520    -318.244
  O       -9.667    -203.672    -317.461
  C      -10.651    -202.443    -319.323
  N      -12.703    -197.766    -319.692
  C      -11.467    -198.183    -319.342
  N      -11.002    -199.447    -319.246
  C      -11.962    -200.332    -319.565
  C      -13.272    -200.056    -319.916
  C      -13.640    -198.704    -319.979
  N      -14.904    -198.283    -320.336
  N      -13.971    -201.220    -320.149
  C      -13.095    -202.185    -319.951
  N      -11.864    -201.698    -319.607
  O      -13.387    -204.389    -323.649
  O      -10.909    -204.374    -324.325
  H       -9.909    -204.174    -316.656
  H      -13.295    -203.454    -323.917
  H      -10.755    -197.397    -319.111
  H      -13.301    -203.241    -320.044
  H       -9.875    -201.721    -319.053
  H      -11.683    -203.308    -317.553
  H      -12.125    -204.779    -319.465
  H       -9.085    -204.732    -319.889
  H       -9.657    -205.068    -322.251
  H      -15.121    -197.307    -320.212
  H      -15.633    -198.982    -320.411
  H      -10.246    -206.429    -321.273
  P      -12.081    -206.879    -317.967
  C      -12.423    -205.651    -315.739
  O      -12.007    -206.853    -316.362
  O      -11.579    -208.358    -318.314
  O      -13.383    -206.477    -318.566
  H      -10.683    -208.528    -317.978
  H      -12.372    -205.785    -314.657
  H      -13.451    -205.410    -316.022
  H      -11.755    -204.833    -316.023
  H      -11.458    -208.394    -324.564
  H      -10.524    -207.509    -323.381
  H      -10.540    -206.989    -325.049

 3  4  5  6  7  8  9  10  11  12  22  25  29  30  31  32 0
 6-311+G(2d,p)
 ****
 33  36  37 0
 6-311+G(2d,p)
 ****
 1  2  13  14  15  16  17  18  19  20  21  23  24  26 0
 3-21G
 ****
 27  28  34  35  38  39  40  41  42  43  44  45  46  47  48 0
 3-21G
 ****


