%nproc=1
%NoSave
%Mem=1900MB
#P OB98/GEN NMR

erre ene a

0 1
  C       54.683     155.759     168.872
  O       54.430     155.191     167.599
  P       54.210     153.610     167.443
  C       55.756     151.546     167.377
  O       55.682     152.968     167.462
  C       57.153     151.051     167.759
  O       58.072     151.230     166.660
  C       57.775     151.790     168.939
  O       57.210     151.341     170.161
  C       59.248     151.452     168.755
  O       59.556     150.161     169.304
  C       59.391     151.440     167.218
  N       60.005     152.658     166.706
  C       61.395     152.751     166.857
  O       62.019     151.853     167.425
  N       62.033     153.884     166.407
  C       61.339     154.843     165.871
  N       62.026     155.942     165.454
  C       59.871     154.794     165.723
  C       59.274     153.687     166.156
  O       53.345     153.199     166.295
  O       53.616     153.182     168.869
  H       60.528     150.071     169.267
  H       52.672     153.469     168.969
  H       59.337     155.623     165.282
  H       58.200     153.569     166.089
  H       60.000     150.585     166.895
  H       59.901     152.178     169.253
  H       57.628     152.873     168.819
  H       57.087     149.979     167.980
  H       63.029     155.946     165.603
  H       55.541     151.254     166.346
  H       61.582     156.758     165.061
  H       54.999     151.101     168.030
  P       56.688     152.403     171.237
  C       57.731     154.219     172.723
  O       57.971     153.080     171.921
  O       55.651     151.901     172.183
  O       56.101     153.594     170.332
  H       55.243     153.880     170.702
  H       58.590     154.372     173.383
  H       56.834     154.085     173.336
  H       57.608     155.094     172.084
  H       54.801     156.818     168.773
  H       55.578     155.337     169.280
  H       53.861     155.551     169.525

 3  4  5  6  7  8  9  10  11  12  13  23  27  28  29  30  32 0
 6-311+G(2d,p)
 ****
 34  35 0
 6-311+G(2d,p)
 ****
 1  2  14  15  16  17  18  19  20  21  22  24  25  26 0
 3-21G
 ****
 31  33  36  37  38  39  40  41  42  43  44  45  46 0
 3-21G
 ****


