%nproc=1
%NoSave
%Mem=1900MB
#P OB98/GEN NMR

erre ene a

0 1
  C       62.579       7.998    -104.808
  O       63.170       7.268    -103.755
  H       63.292       8.751    -105.152
  H       61.681       8.504    -104.444
  H       62.320       7.349    -105.648
  P       62.551       5.846    -103.362
  C       60.539       6.795    -102.056
  O       61.735       6.029    -101.991
  C       59.817       6.841    -100.709
  O       58.636       7.667    -100.804
  C       59.333       5.461    -100.262
  O       60.297       4.667     -99.596
  C       58.182       5.823     -99.328
  O       58.664       6.089     -98.000
  C       57.620       7.097     -99.960
  N       52.516       6.880     -99.991
  C       53.370       7.094     -98.927
  N       52.793       7.205     -97.711
  N       54.669       7.170     -99.051
  C       55.110       6.944    -100.310
  C       54.360       6.708    -101.441
  C       52.918       6.680    -101.303
  O       52.117       6.486    -102.212
  N       55.158       6.529    -102.545
  C       56.386       6.581    -102.069
  N       56.407       6.858    -100.722
  O       63.828       4.996    -102.892
  O       61.812       5.144    -104.460
  H       59.402       6.721     -98.063
  H       63.662       4.046    -103.025
  H       51.523       6.857     -99.842
  H       57.288       6.453    -102.657
  H       57.378       7.850     -99.199
  H       57.459       5.006     -99.243
  H       51.812       7.037     -97.552
  H       58.923       4.907    -101.113
  H       53.389       7.096     -96.888
  H       60.475       7.301     -99.962
  H       59.902       6.320    -102.805
  H       60.755       7.808    -102.409
  P       60.646       3.204    -100.143
  C       58.597       1.873     -99.248
  O       59.974       2.155     -99.135
  O       62.211       3.076     -99.840
  O       60.340       2.982    -101.584
  H       62.729       3.300    -100.636
  H       58.317       1.158     -98.503
  H       58.393       1.474    -100.220
  H       58.036       2.773     -99.107

 6  7  8  9  10  11  12  13  14  15  26  29  33  34 0
 6-311+G(2d,p)
 ****
 36  38  39  40  41 0
 6-311+G(2d,p)
 ****
 1  2  3  4  5  16  17  18  19  20  21  22  23  24  25 0
 3-21G
 ****
 27  28  30  31  32  35  37  42  43  44  45  46  47 0
 3-21G
 ****
 48  49 0
 3-21G
 ****


