%nproc=1
%NoSave
%Mem=1900MB
#P OB98/GEN NMR

erre ene a

0 1
  C       -5.007      76.610      23.924
  O       -3.721      77.175      23.663
  P       -3.648      78.771      23.519
  C       -3.805      79.107      20.953
  O       -4.466      79.204      22.207
  C       -4.575      79.836      19.844
  O       -5.822      79.154      19.545
  C       -4.923      81.284      20.193
  O       -4.879      82.040      18.979
  C       -6.364      81.188      20.654
  O       -7.019      82.452      20.571
  C       -6.895      80.106      19.700
  N       -8.119      79.467      20.179
  C       -9.319      80.144      19.953
  O       -9.314      81.263      19.436
  N      -10.495      79.562      20.355
  C      -10.468      78.426      20.980
  N      -11.667      77.901      21.356
  C       -9.221      77.703      21.291
  C       -8.098      78.275      20.863
  O       -2.121      79.038      23.121
  O       -4.021      79.503      24.768
  H       -6.468      83.112      21.045
  H       -1.743      79.732      23.694
  H       -9.246      76.768      21.832
  H       -7.134      77.821      21.042
  H       -7.106      80.534      18.711
  H       -6.408      80.839      21.693
  H       -4.249      81.729      20.931
  H       -3.964      79.813      18.934
  H      -12.501      78.422      21.117
  H       -3.689      78.057      20.676
  H      -11.764      77.025      21.847
  H       -2.790      79.507      21.054
  P       -3.547      82.867      18.647
  C       -4.686      85.156      18.403
  O       -3.838      84.348      19.194
  O       -3.691      83.083      17.063
  O       -2.229      82.265      18.996
  H       -2.892      83.521      16.717
  H       -4.897      86.080      18.948
  H       -5.631      84.640      18.205
  H       -4.191      85.410      17.461
  H       -4.921      75.546      23.998
  H       -5.675      76.859      23.126
  H       -5.388      77.001      24.844

 3  4  5  6  7  8  9  10  11  12  13  21  23  27  28  29  30  32 0
 6-311+G(2d,p)
 ****
 34  35 0
 6-311+G(2d,p)
 ****
 1  2  14  15  16  17  18  19  20  22  24  25  26 0
 3-21G
 ****
 31  33  36  37  38  39  40  41  42  43  44  45  46 0
 3-21G
 ****


