%nproc=1
%NoSave
%Mem=1900MB
#P OB98/GEN NMR

erre ene a

0 1
  C     -292.396    -398.897     -74.246
  O     -291.569    -399.459     -75.246
  H     -292.810    -399.707     -73.642
  H     -293.218    -398.345     -74.706
  H     -291.816    -398.234     -73.602
  P     -290.831    -398.440     -76.243
  C     -293.211    -397.638     -76.932
  O     -291.904    -397.270     -76.510
  C     -294.087    -396.394     -77.107
  O     -293.506    -395.544     -78.128
  C     -295.522    -396.718     -77.530
  O     -296.428    -395.899     -76.791
  C     -295.562    -396.369     -79.007
  O     -296.875    -396.032     -79.449
  C     -294.526    -395.241     -79.096
  N     -293.964    -395.128     -80.440
  C     -294.161    -393.912     -81.107
  O     -294.797    -393.004     -80.563
  N     -293.686    -393.771     -82.384
  C     -293.116    -394.776     -82.972
  N     -292.686    -394.582     -84.247
  C     -292.928    -396.091     -82.330
  C     -293.365    -396.193     -81.072
  O     -290.803    -399.247     -77.622
  O     -289.491    -397.963     -75.789
  H     -297.246    -395.368     -78.825
  H     -290.189    -398.828     -78.274
  H     -292.464    -396.904     -82.865
  H     -293.273    -397.124     -80.522
  H     -294.979    -394.279     -78.822
  H     -295.225    -397.234     -79.593
  H     -295.785    -397.764     -77.373
  H     -294.067    -395.822     -76.174
  H     -292.841    -393.670     -84.662
  H     -293.654    -398.295     -76.175
  H     -292.257    -395.300     -84.814
  H     -293.144    -398.178     -77.881
  P     -297.342    -396.660     -75.711
  C     -299.476    -397.085     -77.116
  O     -298.322    -397.647     -76.514
  O     -298.313    -395.508     -75.165
  O     -296.557    -397.307     -74.616
  H     -297.992    -395.165     -74.313
  H     -300.030    -397.854     -77.612
  H     -299.181    -396.342     -77.828
  H     -300.088    -396.634     -76.363

 6  7  8  9  10  11  12  13  14  15  16  26  30  31  32  33  35 0
 6-311+G(2d,p)
 ****
 37  38 0
 6-311+G(2d,p)
 ****
 1  2  3  4  5  17  18  19  20  21  22  23  24  25 0
 3-21G
 ****
 27  28  29  34  36  39  40  41  42  43  44  45  46 0
 3-21G
 ****


