%nproc=1
%NoSave
%Mem=1900MB
#P OB98/GEN NMR

erre ene a

0 1
  C      389.370    -240.553      93.280
  O      388.031    -240.197      93.569
  H      389.907    -239.657      92.961
  H      389.413    -241.293      92.479
  H      389.852    -240.948      94.179
  P      386.967    -241.378      93.791
  C      386.962    -240.953      96.335
  O      387.211    -241.895      95.295
  C      386.082    -241.556      97.428
  O      384.737    -241.760      96.949
  C      386.537    -242.925      97.909
  O      387.768    -242.935      98.592
  C      385.289    -243.440      98.610
  O      385.172    -242.949      99.943
  C      384.169    -242.841      97.723
  N      383.540    -243.844      96.869
  C      382.352    -244.386      97.342
  O      381.843    -244.081      98.415
  N      381.769    -245.330      96.538
  C      382.276    -245.807      95.368
  O      381.717    -246.673      94.704
  C      383.559    -245.223      94.941
  C      384.123    -244.283      95.696
  O      386.988    -242.472      92.764
  O      385.563    -240.619      93.894
  H      385.288    -241.980      99.901
  H      384.808    -241.245      93.785
  H      380.897    -245.728      96.855
  H      383.996    -245.586      94.020
  H      385.067    -243.834      95.401
  H      383.388    -242.394      98.351
  H      385.268    -244.532      98.662
  H      386.680    -243.565      97.027
  H      386.032    -240.840      98.258
  H      386.444    -240.095      95.891
  H      387.911    -240.614      96.757
  P      388.653    -244.241      98.806
  C      390.755    -243.812      97.312
  O      389.519    -244.495      97.480
  O      387.978    -245.414      99.440
  O      389.774    -243.705      99.843
  H      390.000    -244.454     100.430
  H      391.196    -244.097      96.380
  H      391.416    -244.069      98.113
  H      390.583    -242.756      97.317

 6  7  8  9  10  11  12  13  14  15  16  26  31  32  33  34  35 0
 6-311+G(2d,p)
 ****
 36  37 0
 6-311+G(2d,p)
 ****
 1  2  3  4  5  17  18  19  20  21  22  23  24  25 0
 3-21G
 ****
 27  28  29  30  38  39  40  41  42  43  44  45 0
 3-21G
 ****


