%nproc=1
%NoSave
%Mem=1900MB
#P OB98/GEN NMR

erre ene a

0 1
  C      -69.182    -242.778     -26.034
  O      -70.230    -242.107     -25.354
  P      -70.192    -242.071     -23.753
  C      -70.137    -239.509     -23.335
  O      -69.422    -240.735     -23.306
  C      -70.095    -238.823     -21.968
  O      -70.773    -239.651     -20.987
  C      -68.675    -238.575     -21.450
  O      -68.652    -237.358     -20.690
  C      -68.449    -239.717     -20.481
  O      -67.445    -239.397     -19.519
  C      -69.853    -239.884     -19.902
  N      -68.653    -242.954     -16.073
  C      -68.468    -241.591     -16.195
  N      -67.793    -240.983     -15.195
  N      -68.909    -240.887     -17.203
  C      -69.561    -241.631     -18.131
  C      -69.820    -242.983     -18.113
  C      -69.315    -243.751     -16.997
  O      -69.420    -244.963     -16.843
  N      -70.539    -243.370     -19.213
  C      -70.679    -242.267     -19.920
  N      -70.071    -241.193     -19.323
  O      -69.156    -243.239     -23.395
  O      -71.508    -242.302     -23.093
  H      -66.594    -239.371     -19.995
  H      -69.639    -244.016     -23.055
  H      -68.283    -243.454     -15.281
  H      -71.183    -242.195     -20.875
  H      -70.060    -239.135     -19.128
  H      -68.128    -240.613     -21.025
  H      -67.369    -241.480     -14.425
  H      -67.908    -238.530     -22.230
  H      -67.604    -239.994     -15.283
  H      -70.653    -237.881     -22.032
  H      -71.176    -239.709     -23.601
  H      -69.709    -238.852     -24.099
  P      -67.266    -236.548     -20.700
  C      -67.647    -235.319     -22.962
  O      -66.920    -236.294     -22.241
  O      -66.195    -237.647     -20.246
  O      -67.254    -235.342     -19.821
  H      -65.423    -237.215     -19.836
  H      -66.961    -234.530     -23.280
  H      -68.449    -234.875     -22.365
  H      -68.086    -235.786     -23.848
  H      -69.345    -242.717     -27.090
  H      -69.163    -243.805     -25.735
  H      -68.247    -242.318     -25.790

 3  4  5  6  7  8  9  10  11  12  23  26  30  31 0
 6-311+G(2d,p)
 ****
 33  35  36  37  38 0
 6-311+G(2d,p)
 ****
 1  2  13  14  15  16  17  18  19  20  21  22  24  25 0
 3-21G
 ****
 27  28  29  32  34  39  40  41  42  43  44  45  46  47  48  49 0
 3-21G
 ****


