%nproc=1
%NoSave
%Mem=1900MB
#P OB98/GEN NMR

erre ene a

0 1
  C       43.121    -135.497     -45.567
  O       43.418    -134.611     -46.629
  H       44.004    -136.110     -45.366
  H       42.292    -136.158     -45.836
  H       42.872    -134.935     -44.662
  P       42.257    -133.653     -47.172
  C       41.722    -135.102     -49.250
  O       41.255    -134.587     -48.007
  C       40.569    -135.225     -50.246
  O       39.681    -136.291     -49.857
  C       39.700    -133.976     -50.349
  O       40.359    -132.966     -51.085
  C       38.455    -134.557     -51.004
  O       38.655    -134.740     -52.416
  C       38.349    -135.926     -50.286
  N       37.425    -135.919     -49.156
  C       36.729    -137.113     -48.922
  O       36.899    -138.085     -49.657
  N       35.845    -137.158     -47.871
  C       35.700    -136.128     -47.096
  N       34.813    -136.239     -46.069
  C       36.441    -134.865     -47.287
  C       37.267    -134.828     -48.332
  O       42.701    -132.420     -47.899
  O       41.409    -133.293     -45.863
  H       38.930    -133.868     -52.763
  H       41.719    -132.450     -45.475
  H       36.297    -134.034     -46.610
  H       37.849    -133.934     -48.542
  H       38.017    -136.704     -50.989
  H       37.585    -133.913     -50.884
  H       39.427    -133.620     -49.348
  H       40.995    -135.489     -51.223
  H       34.345    -137.135     -45.967
  H       42.151    -136.090     -49.048
  H       34.741    -135.570     -45.318
  H       42.509    -134.462     -49.664
  P       40.308    -131.429     -50.633
  C       38.266    -131.073     -52.157
  O       38.786    -130.963     -50.840
  O       41.326    -130.544     -51.271
  O       40.435    -131.499     -49.038
  H       41.372    -131.667     -48.773
  H       37.251    -130.735     -52.169
  H       38.305    -132.095     -52.472
  H       38.850    -130.472     -52.822

 6  7  8  9  10  11  12  13  14  15  16  26  30  31  32  33  35 0
 6-311+G(2d,p)
 ****
 37  38 0
 6-311+G(2d,p)
 ****
 1  2  3  4  5  17  18  19  20  21  22  23  24  25 0
 3-21G
 ****
 27  28  29  34  36  39  40  41  42  43  44  45  46 0
 3-21G
 ****


