%nproc=1
%NoSave
%Mem=1900MB
#P OB98/GEN NMR

erre ene a

0 1
  C      -46.143      24.904      84.837
  O      -46.844      24.907      86.059
  P      -46.136      24.919      87.488
  C      -44.131      23.636      88.572
  O      -45.153      23.657      87.582
  C      -43.270      22.371      88.451
  O      -42.407      22.509      87.292
  C      -42.353      22.190      89.672
  O      -42.260      20.850      90.135
  C      -41.061      22.868      89.229
  O      -39.923      22.463      89.974
  C      -41.036      22.541      87.738
  N      -36.560      23.712      85.634
  C      -36.966      22.523      86.208
  N      -36.002      21.598      86.407
  N      -38.198      22.286      86.584
  C      -39.026      23.346      86.428
  C      -38.737      24.570      85.869
  C      -37.383      24.807      85.429
  O      -36.951      25.885      85.019
  N      -39.806      25.425      85.937
  C      -40.734      24.731      86.567
  N      -40.294      23.474      86.914
  O      -47.006      25.222      88.665
  O      -45.093      26.143      87.324
  H      -39.991      22.868      90.859
  H      -45.020      26.576      88.198
  H      -35.576      23.865      85.440
  H      -41.722      25.096      86.822
  H      -40.600      21.560      87.552
  H      -41.183      23.945      89.392
  H      -35.023      21.810      86.263
  H      -42.757      22.729      90.537
  H      -36.218      20.836      87.042
  H      -43.921      21.507      88.283
  H      -44.641      23.653      89.542
  H      -43.511      24.534      88.503
  P      -42.034      20.319      91.624
  C      -40.226      20.725      93.399
  O      -40.499      20.547      92.022
  O      -42.140      18.726      91.518
  O      -43.014      20.835      92.625
  H      -42.615      18.377      92.296
  H      -39.219      21.138      93.508
  H      -40.270      19.759      93.910
  H      -40.944      21.414      93.852
  H      -46.841      24.896      84.026
  H      -45.523      24.033      84.784
  H      -45.533      25.781      84.774

 3  4  5  6  7  8  9  10  11  12  23  26  30  31 0
 6-311+G(2d,p)
 ****
 33  35  36  37  38 0
 6-311+G(2d,p)
 ****
 1  2  13  14  15  16  17  18  19  20  21  22  24  25 0
 3-21G
 ****
 27  28  29  32  34  39  40  41  42  43  44  45  46  47  48  49 0
 3-21G
 ****


