%nproc=1
%NoSave
%Mem=1900MB
#P OB98/GEN NMR

erre ene a

0 1
  C      -12.717     -93.758     -43.848
  O      -12.740     -92.944     -45.007
  P      -12.219     -93.566     -46.387
  C      -10.332     -91.955     -47.162
  O      -11.686     -92.356     -47.295
  C       -9.753     -91.572     -48.525
  O       -9.616     -92.772     -49.345
  C      -10.615     -90.576     -49.314
  O       -9.727     -89.740     -50.070
  C      -11.385     -91.483     -50.255
  O      -11.918     -90.800     -51.379
  C      -10.299     -92.511     -50.587
  N      -10.836     -93.736     -51.176
  C      -11.046     -93.746     -52.551
  O      -10.809     -92.792     -53.290
  N      -11.607     -94.886     -53.059
  C      -12.052     -95.955     -52.338
  O      -12.653     -96.896     -52.842
  C      -11.804     -95.889     -50.889
  C      -11.217     -94.802     -50.383
  O      -13.569     -94.022     -47.116
  O      -11.256     -94.696     -46.238
  H      -12.612     -90.198     -51.054
  H      -13.705     -94.982     -47.011
  H      -11.756     -94.915     -54.056
  H      -12.126     -96.730     -50.288
  H      -11.041     -94.718     -49.316
  H       -9.561     -92.073     -51.272
  H      -12.220     -91.944     -49.714
  H      -11.268     -89.966     -48.683
  H       -8.744     -91.167     -48.375
  H       -9.753     -92.780     -46.745
  H      -10.265     -91.113     -46.464
  P       -9.830     -88.151     -49.859
  C      -10.908     -87.737     -52.204
  O       -9.836     -87.493     -51.318
  O       -8.365     -87.830     -49.297
  O      -10.929     -87.738     -48.936
  H       -7.667     -88.301     -49.781
  H      -11.856     -87.837     -51.670
  H      -10.712     -88.654     -52.765
  H      -10.984     -86.903     -52.905
  H      -13.094     -93.203     -43.015
  H      -11.712     -94.065     -43.647
  H      -13.328     -94.622     -44.007

 3  4  5  6  7  8  9  10  11  12  13  23  28  29  30  31  32 0
 6-311+G(2d,p)
 ****
 33  34 0
 6-311+G(2d,p)
 ****
 1  2  14  15  16  17  18  19  20  21  22  24  25  26 0
 3-21G
 ****
 27  35  36  37  38  39  40  41  42  43  44  45 0
 3-21G
 ****


