%nproc=1
%NoSave
%Mem=1900MB
#P OB98/GEN NMR

erre ene a

0 1
  C       84.200    -168.468    -899.140
  O       84.972    -168.110    -898.010
  H       83.444    -167.700    -899.330
  H       84.860    -168.552    -900.000
  H       83.718    -169.436    -898.960
  P       84.171    -167.833    -896.650
  C       85.113    -170.067    -895.720
  O       84.911    -168.678    -895.500
  C       84.903    -170.848    -894.430
  O       85.966    -170.553    -893.490
  C       83.614    -170.522    -893.680
  O       82.492    -171.173    -894.260
  C       83.933    -171.078    -892.310
  O       83.741    -172.504    -892.290
  C       85.439    -170.753    -892.160
  N       86.248    -168.930    -887.430
  C       86.012    -170.181    -887.880
  N       85.793    -170.587    -889.140
  C       85.860    -169.550    -890.010
  C       86.085    -168.228    -889.680
  C       86.277    -167.916    -888.330
  N       86.505    -166.634    -887.870
  N       86.089    -167.445    -890.820
  C       85.849    -168.277    -891.810
  N       85.698    -169.569    -891.360
  O       82.790    -168.626    -896.860
  O       83.913    -166.394    -896.330
  H       84.166    -172.835    -891.480
  H       82.064    -168.125    -896.450
  H       86.018    -170.967    -887.130
  H       85.800    -168.009    -892.860
  H       85.982    -171.602    -891.720
  H       83.314    -170.660    -891.520
  H       83.461    -169.437    -893.620
  H       84.960    -171.917    -894.680
  H       86.141    -170.232    -896.080
  H       86.831    -166.504    -886.930
  H       86.539    -165.886    -888.560
  H       84.416    -170.413    -896.490
  P       81.072    -171.016    -893.520
  C       80.303    -169.574    -895.550
  O       80.008    -170.663    -894.670
  O       81.232    -169.623    -892.740
  O       80.715    -172.129    -892.600
  H       80.646    -169.600    -891.960
  H       79.508    -169.461    -896.257
  H       81.217    -169.773    -896.070
  H       80.405    -168.673    -894.981

 6  7  8  9  10  11  12  13  14  15  25  28  32  33  34  35 0
 6-311+G(2d,p)
 ****
 36  39  40 0
 6-311+G(2d,p)
 ****
 1  2  3  4  5  16  17  18  19  20  21  22  23  24 0
 3-21G
 ****
 26  27  29  30  31  37  38  41  42  43  44  45  46  47  48 0
 3-21G
 ****


