%nproc=1
%NoSave
%Mem=1900MB
#P OB98/GEN NMR

erre ene a

0 1
  C     -895.664    -106.047    -639.784
  O     -894.264    -105.937    -639.563
  H     -896.054    -105.072    -640.067
  H     -896.164    -106.378    -638.868
  H     -895.864    -106.754    -640.593
  P     -893.454    -107.242    -639.091
  C     -893.374    -108.620    -636.909
  O     -894.104    -107.683    -637.688
  C     -893.914    -108.653    -635.480
  O     -893.524    -107.467    -634.755
  C     -895.444    -108.726    -635.389
  O     -895.884    -110.068    -635.572
  C     -895.654    -108.226    -633.961
  O     -895.334    -109.280    -633.037
  C     -894.614    -107.102    -633.871
  N     -894.864    -102.203    -632.539
  C     -894.384    -103.292    -631.839
  N     -893.954    -103.040    -630.569
  N     -894.364    -104.517    -632.304
  C     -894.894    -104.617    -633.536
  C     -895.404    -103.625    -634.340
  C     -895.374    -102.257    -633.833
  O     -895.764    -101.258    -634.449
  N     -895.944    -104.119    -635.499
  C     -895.714    -105.415    -635.430
  N     -895.084    -105.775    -634.250
  O     -891.964    -107.108    -639.053
  O     -893.944    -108.387    -640.092
  H     -894.414    -109.576    -633.245
  H     -893.344    -108.450    -640.874
  H     -894.864    -101.281    -632.122
  H     -895.974    -106.143    -636.187
  H     -894.194    -107.006    -632.866
  H     -896.694    -107.921    -633.778
  H     -894.084    -102.157    -630.112
  H     -895.914    -108.035    -636.090
  H     -893.674    -103.832    -630.015
  H     -893.454    -109.507    -634.965
  H     -892.314    -108.315    -636.912
  H     -893.444    -109.619    -637.354
  P     -897.444    -110.418    -635.673
  C     -899.244    -111.049    -633.916
  O     -897.984    -110.438    -634.158
  O     -897.754    -111.657    -636.466
  O     -898.124    -109.086    -636.267
  H     -898.084    -109.034    -637.246
  H     -899.474    -110.990    -632.873
  H     -899.206    -112.076    -634.215
  H     -900.000    -110.542    -634.478

 6  7  8  9  10  11  12  13  14  15  26  29  33  34 0
 6-311+G(2d,p)
 ****
 36  38  39  40  41 0
 6-311+G(2d,p)
 ****
 1  2  3  4  5  16  17  18  19  20  21  22  23  24  25 0
 3-21G
 ****
 27  28  30  31  32  35  37  42  43  44  45  46  47 0
 3-21G
 ****
 48  49 0
 3-21G
 ****


