%nproc=1
%NoSave
%Mem=1900MB
#P OB98/GEN NMR

erre ene a

0 1
  C      561.867     164.710      -8.100
  O      561.607     166.056      -8.441
  H      561.759     164.093      -8.998
  H      561.158     164.358      -7.347
  H      562.888     164.601      -7.730
  P      561.662     167.165      -7.282
  C      559.098     167.033      -7.002
  O      560.219     167.868      -7.268
  C      557.805     167.744      -7.405
  O      556.680     166.848      -7.290
  C      557.469     168.966      -6.556
  O      558.202     170.101      -6.991
  C      555.983     169.090      -6.836
  O      555.775     169.683      -8.133
  C      555.537     167.619      -6.845
  N      551.770     167.443      -3.442
  C      551.882     168.202      -4.590
  N      550.870     169.050      -4.862
  N      552.915     168.132      -5.400
  C      553.879     167.291      -4.972
  C      553.886     166.505      -3.842
  C      552.712     166.536      -2.991
  O      552.553     165.861      -1.975
  N      555.079     165.852      -3.694
  C      555.781     166.197      -4.760
  N      555.101     167.084      -5.563
  O      562.806     168.126      -7.351
  O      561.666     166.313      -5.926
  H      554.827     169.895      -8.201
  H      562.583     166.132      -5.633
  H      550.948     167.541      -2.854
  H      556.774     165.847      -4.988
  H      554.718     167.441      -7.554
  H      555.466     169.730      -6.105
  H      550.134     169.258      -4.201
  H      557.621     168.767      -5.491
  H      550.971     169.655      -5.672
  H      557.888     168.019      -8.469
  H      559.095     166.814      -5.934
  H      559.186     166.091      -7.558
  P      559.364     170.751      -6.089
  C      557.615     172.655      -5.903
  O      558.983     172.321      -5.980
  O      560.745     170.480      -6.540
  O      559.036     170.243      -4.604
  H      559.426     169.346      -4.416
  H      557.511     173.718      -5.836
  H      557.185     172.199      -5.036
  H      557.112     172.302      -6.779

 6  7  8  9  10  11  12  13  14  15  26  29  33  34 0
 6-311+G(2d,p)
 ****
 36  38  39  40  41 0
 6-311+G(2d,p)
 ****
 1  2  3  4  5  16  17  18  19  20  21  22  23  24  25 0
 3-21G
 ****
 27  28  30  31  32  35  37  42  43  44  45  46  47 0
 3-21G
 ****
 48  49 0
 3-21G
 ****


