%nproc=1
%NoSave
%Mem=1900MB
#P OB98/GEN NMR

erre ene a

0 1
  C     1211.032     446.319    1324.561
  O     1211.482     447.661    1324.628
  H     1211.832     445.683    1324.168
  H     1210.772     445.980    1325.574
  H     1210.148     446.233    1323.928
  P     1211.628     448.461    1323.249
  C     1213.519     446.961    1322.284
  O     1213.150     448.251    1322.758
  C     1214.139     447.063    1320.889
  O     1213.076     447.421    1319.940
  C     1215.259     448.129    1320.755
  O     1216.272     447.600    1319.894
  C     1214.566     449.275    1320.062
  O     1215.456     450.109    1319.328
  C     1213.562     448.548    1319.173
  N     1212.350     452.504    1316.205
  C     1213.416     451.665    1316.197
  N     1213.629     450.596    1316.996
  C     1212.588     450.396    1317.825
  C     1211.444     451.146    1317.933
  C     1211.345     452.273    1317.093
  N     1210.298     453.170    1317.143
  N     1210.606     450.651    1318.939
  C     1211.277     449.610    1319.433
  N     1212.474     449.421    1318.790
  O     1211.596     449.987    1323.730
  O     1210.578     448.174    1322.225
  H     1216.164     450.410    1319.933
  H     1210.682     450.290    1323.774
  H     1214.180     451.877    1315.472
  H     1210.952     449.006    1320.271
  H     1214.016     448.160    1318.251
  H     1214.040     449.895    1320.805
  H     1215.706     448.402    1321.721
  H     1214.507     446.085    1320.592
  H     1212.628     446.333    1322.246
  H     1210.381     453.995    1316.560
  H     1209.604     453.067    1317.867
  H     1214.246     446.510    1322.985
  P     1217.493     446.810    1320.573
  C     1219.097     448.462    1319.329
  O     1218.830     447.113    1319.736
  O     1217.191     445.276    1320.227
  O     1217.604     447.036    1322.064
  H     1217.496     444.703    1320.942
  H     1220.018     448.495    1318.785
  H     1219.171     449.087    1320.194
  H     1218.301     448.810    1318.704

 6  7  8  9  10  11  12  13  14  15  25  28  32  33  34  35 0
 6-311+G(2d,p)
 ****
 36  39  40 0
 6-311+G(2d,p)
 ****
 1  2  3  4  5  16  17  18  19  20  21  22  23  24 0
 3-21G
 ****
 26  27  29  30  31  37  38  41  42  43  44  45  46  47 0
 3-21G
 ****
 48 0
 3-21G
 ****


