%nproc=1
%NoSave
%Mem=1900MB
#P OB98/GEN NMR

erre ene a

0 1
  C     -166.949      44.579     -12.315
  O     -166.807      44.701     -10.902
  P     -167.538      45.937     -10.188
  C     -170.024      45.707     -10.997
  O     -169.072      45.533      -9.962
  C     -171.343      44.988     -10.660
  O     -171.034      43.635     -10.234
  C     -172.145      45.599      -9.515
  O     -173.491      45.121      -9.592
  C     -171.465      44.995      -8.305
  O     -172.282      45.086      -7.141
  C     -171.140      43.563      -8.788
  N     -169.894      43.013      -8.213
  C     -169.862      42.725      -6.850
  O     -170.811      42.904      -6.089
  N     -168.673      42.253      -6.360
  C     -167.550      42.006      -7.090
  O     -166.485      41.666      -6.586
  C     -167.681      42.190      -8.541
  C     -168.820      42.687      -9.027
  O     -167.589      47.053     -11.332
  O     -166.841      46.419      -8.960
  H     -173.080      44.536      -7.315
  H     -166.930      47.749     -11.152
  H     -168.616      42.106      -5.363
  H     -166.829      41.939      -9.162
  H     -168.926      42.849     -10.097
  H     -171.951      42.867      -8.532
  H     -170.538      45.538      -8.095
  H     -172.138      46.691      -9.487
  H     -171.956      44.917     -11.567
  H     -169.618      45.334     -11.941
  H     -170.219      46.776     -11.139
  P     -174.674      46.203      -9.596
  C     -175.167      46.586     -12.090
  O     -175.550      45.909     -10.908
  O     -174.265      47.623      -9.396
  O     -175.632      45.689      -8.415
  H     -176.216      46.414      -8.127
  H     -175.439      45.971     -12.952
  H     -174.090      46.776     -12.113
  H     -175.704      47.538     -12.148
  H     -166.414      43.717     -12.654
  H     -166.555      45.453     -12.790
  H     -167.985      44.476     -12.562

 3  4  5  6  7  8  9  10  11  12  13  23  28  29  30  31  32 0
 6-311+G(2d,p)
 ****
 33  34 0
 6-311+G(2d,p)
 ****
 1  2  14  15  16  17  18  19  20  21  22  24  25  26  27 0
 3-21G
 ****
 35  36  37  38  39  40  41  42  43  44  45 0
 3-21G
 ****


