%nproc=1
%NoSave
%Mem=1900MB
#P OB98/GEN NMR

erre ene a

0 1
  C      393.982    -109.285    -385.141
  O      393.570    -110.618    -384.789
  P      394.049    -111.187    -383.370
  C      396.231    -112.181    -382.363
  O      395.530    -111.797    -383.541
  C      397.496    -112.995    -382.696
  O      397.137    -114.237    -383.374
  C      398.477    -112.264    -383.611
  O      399.812    -112.705    -383.313
  C      398.091    -112.762    -384.993
  O      399.134    -112.554    -385.946
  C      397.786    -114.232    -384.661
  N      397.796    -116.703    -389.070
  C      398.845    -116.167    -388.350
  N      400.092    -116.348    -388.856
  N      398.695    -115.514    -387.217
  C      397.400    -115.441    -386.816
  C      396.279    -115.920    -387.453
  C      396.466    -116.616    -388.708
  O      395.562    -117.095    -389.399
  N      395.131    -115.626    -386.736
  C      395.564    -114.963    -385.677
  N      396.942    -114.866    -385.660
  O      393.127    -112.495    -383.174
  O      393.869    -110.235    -382.236
  H      398.799    -112.885    -386.820
  H      392.462    -112.329    -382.486
  H      397.974    -117.183    -389.941
  H      394.947    -114.548    -384.903
  H      398.697    -114.831    -384.589
  H      397.192    -112.248    -385.351
  H      400.276    -116.890    -389.690
  H      398.431    -111.157    -383.537
  H      400.872    -116.002    -388.317
  H      397.993    -113.265    -381.763
  H      395.576    -112.780    -381.712
  H      396.481    -111.282    -381.784
  P      400.837    -111.609    -382.749
  C      402.560    -110.008    -383.850
  O      401.689    -111.124    -384.011
  O      401.880    -112.476    -381.899
  O      400.201    -110.527    -381.931
  H      402.293    -111.926    -381.212
  H      403.589    -110.359    -383.775
  H      402.310    -109.428    -382.956
  H      402.476    -109.365    -384.727
  H      393.595    -109.035    -386.107
  H      395.051    -109.236    -385.162
  H      393.607    -108.593    -384.416

 3  4  5  6  7  8  9  10  11  12  23  26  30  31 0
 6-311+G(2d,p)
 ****
 33  35  36  37  38 0
 6-311+G(2d,p)
 ****
 1  2  13  14  15  16  17  18  19  20  21  22  24  25 0
 3-21G
 ****
 27  28  29  32  34  39  40  41  42  43  44  45  46  47  48  49 0
 3-21G
 ****


