%nproc=1
%NoSave
%Mem=1900MB
#P OB98/GEN NMR

erre ene a

0 1
  C       68.563    -175.174     175.849
  O       68.576    -176.149     176.878
  P       68.891    -177.664     176.448
  C       67.060    -179.462     176.900
  O       67.486    -178.360     176.110
  C       66.206    -178.968     178.077
  O       65.107    -178.169     177.587
  C       65.569    -180.082     178.902
  O       66.524    -180.699     179.756
  C       64.478    -179.291     179.629
  O       65.044    -178.575     180.734
  C       64.009    -178.315     178.537
  N       58.948    -179.028     178.853
  C       59.852    -178.582     179.753
  N       61.183    -178.446     179.607
  C       61.562    -178.803     178.364
  C       60.761    -179.302     177.352
  C       59.386    -179.406     177.626
  N       58.467    -179.864     176.704
  N       61.512    -179.592     176.226
  C       62.744    -179.271     176.555
  N       62.832    -178.780     177.832
  O       69.323    -178.355     177.827
  O       69.949    -177.812     175.388
  H       65.704    -177.958     180.371
  H       70.011    -179.035     177.675
  H       59.449    -178.300     180.723
  H       63.608    -179.375     175.902
  H       63.784    -177.313     178.934
  H       63.680    -179.934     180.026
  H       65.115    -180.836     178.242
  H       66.838    -178.330     178.717
  H       67.930    -179.993     177.293
  H       57.528    -180.043     177.032
  H       58.822    -180.276     175.849
  H       66.490    -180.161     176.268
  P       66.040    -181.982     180.586
  C       65.577    -181.522     183.078
  O       65.107    -181.366     181.745
  O       67.373    -182.382     181.381
  O       65.424    -183.074     179.764
  H       67.776    -181.606     181.817
  H       64.879    -181.018     183.759
  H       66.570    -181.083     183.188
  H       65.610    -182.591     183.332
  H       68.342    -174.215     176.269
  H       67.815    -175.428     175.127
  H       69.522    -175.143     175.375

 3  4  5  6  7  8  9  10  11  12  22  25  29  30  31  32 0
 6-311+G(2d,p)
 ****
 33  36  37 0
 6-311+G(2d,p)
 ****
 1  2  13  14  15  16  17  18  19  20  21  23  24  26 0
 3-21G
 ****
 27  28  34  35  38  39  40  41  42  43  44  45  46  47  48 0
 3-21G
 ****


