%nproc=1
%NoSave
%Mem=1900MB
#P OB98/GEN NMR

erre ene a

0 1
  C      -54.327    -167.660     493.381
  O      -53.814    -166.670     494.255
  H      -54.798    -168.437     493.983
  H      -53.522    -168.104     492.795
  H      -55.083    -167.229     492.714
  P      -53.064    -165.398     493.615
  C      -50.790    -166.047     494.695
  O      -51.530    -165.872     493.492
  C      -49.544    -166.877     494.433
  O      -49.871    -168.187     493.936
  C      -48.592    -166.299     493.393
  O      -47.860    -165.164     493.842
  C      -47.703    -167.503     493.143
  O      -46.781    -167.654     494.238
  C      -48.752    -168.637     493.120
  N      -49.200    -168.973     491.760
  C      -48.494    -169.985     491.102
  O      -47.543    -170.549     491.646
  N      -48.868    -170.313     489.814
  C      -49.835    -169.670     489.231
  N      -50.152    -170.032     487.961
  C      -50.586    -168.586     489.894
  C      -50.225    -168.285     491.138
  O      -53.279    -164.090     494.310
  O      -53.527    -165.395     492.076
  H      -47.304    -167.691     495.052
  H      -53.096    -164.620     491.639
  H      -51.369    -168.059     489.353
  H      -50.730    -167.492     491.684
  H      -48.350    -169.547     493.597
  H      -47.108    -167.419     492.227
  H      -49.131    -166.059     492.457
  H      -49.034    -167.020     495.404
  H      -49.620    -170.781     487.533
  H      -51.445    -166.535     495.428
  H      -50.840    -169.535     487.404
  H      -50.490    -165.070     495.098
  P      -47.039    -164.338     492.729
  C      -44.727    -164.510     493.936
  O      -45.520    -164.850     492.811
  O      -46.997    -162.851     493.343
  O      -47.635    -164.365     491.349
  H      -47.690    -162.296     492.945
  H      -43.750    -164.932     493.824
  H      -45.183    -164.896     494.824
  H      -44.650    -163.445     494.009

 6  7  8  9  10  11  12  13  14  15  16  26  30  31  32  33  35 0
 6-311+G(2d,p)
 ****
 37  38 0
 6-311+G(2d,p)
 ****
 1  2  3  4  5  17  18  19  20  21  22  23  24  25 0
 3-21G
 ****
 27  28  29  34  36  39  40  41  42  43  44  45  46 0
 3-21G
 ****


