%nproc=1
%NoSave
%Mem=1900MB
#P OB98/GEN NMR

erre ene a

0 1
  C      710.786    -701.378     949.509
  O      712.020    -700.999     948.937
  H      710.130    -700.504     949.562
  H      710.944    -701.754     950.523
  H      710.292    -702.145     948.904
  P      713.038    -702.179     948.550
  C      713.932    -702.696     950.936
  O      713.141    -703.132     949.844
  C      713.571    -703.495     952.197
  O      712.252    -703.083     952.643
  C      713.519    -705.019     951.973
  O      714.000    -705.653     953.153
  C      712.032    -705.292     951.821
  O      711.664    -706.636     952.121
  C      711.445    -704.272     952.803
  N      710.035    -703.992     952.560
  C      709.136    -705.018     952.762
  O      709.434    -706.147     953.210
  N      707.836    -704.759     952.428
  C      707.362    -703.591     951.892
  O      706.192    -703.412     951.586
  C      708.360    -702.524     951.686
  C      709.643    -702.780     952.025
  O      714.453    -701.427     948.528
  O      712.748    -702.894     947.270
  H      714.639    -701.072     947.636
  H      711.758    -707.150     951.295
  H      707.175    -705.501     952.572
  H      708.039    -701.599     951.257
  H      710.409    -702.017     951.866
  H      711.574    -704.622     953.841
  H      711.713    -705.069     950.795
  H      714.093    -705.356     951.101
  H      714.278    -703.237     952.981
  H      713.733    -701.618     951.123
  H      714.995    -702.817     950.692
  P      715.555    -706.069     953.177
  C      715.375    -708.670     952.844
  O      715.673    -707.380     952.281
  O      715.708    -706.599     954.701
  O      716.465    -704.934     952.823
  H      714.909    -707.055     955.005
  H      715.509    -709.425     952.097
  H      714.362    -708.684     953.187
  H      716.033    -708.861     953.666

 6  7  8  9  10  11  12  13  14  15  16  27  31  32  33  34  35 0
 6-311+G(2d,p)
 ****
 36  37 0
 6-311+G(2d,p)
 ****
 1  2  3  4  5  17  18  19  20  21  22  23  24  25 0
 3-21G
 ****
 26  28  29  30  38  39  40  41  42  43  44  45 0
 3-21G
 ****


