%nproc=1
%NoSave
%Mem=1900MB
#P OB98/GEN NMR

erre ene a

0 1
  C      -81.912    -733.415    -110.907
  O      -81.066    -734.516    -110.642
  H      -82.773    -733.764    -111.478
  H      -81.376    -732.668    -111.503
  H      -82.272    -732.962    -109.978
  P      -79.904    -734.354    -109.556
  C      -81.219    -735.371    -107.581
  O      -80.114    -735.510    -108.465
  C      -81.186    -736.449    -106.494
  O      -81.501    -737.738    -107.091
  C      -79.791    -736.573    -105.870
  O      -79.839    -737.043    -104.524
  C      -79.132    -737.639    -106.738
  O      -78.052    -738.303    -106.087
  C      -80.316    -738.553    -107.044
  N      -78.035    -742.380    -109.527
  C      -77.740    -741.853    -108.284
  N      -76.711    -742.418    -107.612
  N      -78.395    -740.843    -107.753
  C      -79.347    -740.328    -108.572
  C      -79.704    -740.752    -109.826
  C      -79.012    -741.894    -110.384
  O      -79.209    -742.385    -111.490
  N      -80.711    -739.982    -110.350
  C      -80.964    -739.087    -109.417
  N      -80.177    -739.278    -108.299
  O      -80.321    -733.038    -108.749
  O      -78.514    -734.243    -110.107
  H      -77.281    -737.703    -106.117
  H      -79.550    -732.644    -108.310
  H      -77.520    -743.175    -109.868
  H      -81.709    -738.307    -109.477
  H      -80.455    -739.294    -106.259
  H      -78.732    -737.154    -107.631
  H      -76.069    -743.053    -108.063
  H      -79.228    -735.648    -105.904
  H      -76.297    -741.852    -106.861
  H      -81.963    -736.251    -105.744
  H      -82.126    -735.466    -108.186
  H      -81.232    -734.374    -107.135
  P      -79.169    -736.143    -103.380
  C      -81.389    -735.663    -102.011
  O      -80.078    -736.178    -102.064
  O      -79.340    -734.655    -103.917
  O      -77.734    -736.483    -103.094
  H      -78.466    -734.255    -104.097
  H      -81.788    -735.803    -101.028
  H      -82.003    -736.177    -102.721
  H      -81.372    -734.619    -102.244

 6  7  8  9  10  11  12  13  14  15  26  29  33  34 0
 6-311+G(2d,p)
 ****
 36  38  39  40  41 0
 6-311+G(2d,p)
 ****
 1  2  3  4  5  16  17  18  19  20  21  22  23  24  25 0
 3-21G
 ****
 27  28  30  31  32  35  37  42  43  44  45  46  47 0
 3-21G
 ****
 48  49 0
 3-21G
 ****


