%nproc=1
%NoSave
%Mem=1900MB
#P OB98/GEN NMR

erre ene a

0 1
  C     -461.453     299.757     362.383
  O     -461.067     298.403     362.249
  H     -460.853     300.218     363.173
  H     -462.506     299.818     362.663
  H     -461.282     300.302     361.448
  P     -461.649     297.594     360.994
  C     -459.435     296.309     360.537
  O     -460.805     296.230     360.900
  C     -458.705     295.035     360.964
  O     -458.689     294.977     362.418
  C     -459.365     293.741     360.464
  O     -458.334     292.797     360.161
  C     -460.141     293.260     361.677
  O     -460.412     291.866     361.673
  C     -459.199     293.687     362.809
  N     -459.873     293.758     364.103
  C     -459.760     292.654     364.943
  O     -459.070     291.663     364.711
  N     -460.491     292.718     366.103
  C     -461.316     293.737     366.481
  O     -461.958     293.727     367.524
  C     -461.397     294.871     365.550
  C     -460.686     294.828     364.421
  O     -461.122     298.441     359.744
  O     -463.130     297.409     360.978
  H     -461.767     299.133     359.505
  H     -461.001     291.685     360.908
  H     -460.422     291.928     366.722
  H     -462.051     295.693     365.812
  H     -460.741     295.639     363.702
  H     -458.345     293.004     362.874
  H     -461.097     293.791     361.744
  H     -460.013     293.876     359.590
  H     -457.665     295.094     360.631
  H     -458.975     297.167     361.036
  H     -459.357     296.447     359.454
  P     -457.924     292.624     358.619
  C     -455.376     292.016     358.701
  O     -456.721     291.565     358.611
  O     -457.222     294.028     358.327
  O     -459.084     292.300     357.740
  H     -456.730     294.375     359.093
  H     -454.716     291.174     358.681
  H     -455.241     292.554     359.616
  H     -455.159     292.659     357.874

 6  7  8  9  10  11  12  13  14  15  16  27  31  32  33  34  35 0
 6-311+G(2d,p)
 ****
 36  37 0
 6-311+G(2d,p)
 ****
 1  2  3  4  5  17  18  19  20  21  22  23  24  25 0
 3-21G
 ****
 26  28  29  30  38  39  40  41  42  43  44  45 0
 3-21G
 ****


