%nproc=1
%NoSave
%Mem=1900MB
#P OB98/GEN NMR

erre ene a

0 1
  C      -23.081    -122.432     213.292
  O      -22.659    -122.551     214.643
  P      -21.666    -121.422     215.211
  C      -22.321    -121.724     217.703
  O      -21.314    -121.874     216.709
  C      -22.097    -122.705     218.845
  O      -22.379    -124.046     218.398
  C      -20.670    -122.747     219.376
  O      -20.411    -121.684     220.282
  C      -20.660    -124.090     220.090
  O      -21.247    -123.950     221.396
  C      -21.563    -124.950     219.186
  N      -18.941    -129.260     218.762
  C      -19.565    -128.710     219.862
  N      -19.506    -129.423     221.008
  N      -20.191    -127.562     219.844
  C      -20.205    -126.980     218.622
  C      -19.622    -127.426     217.457
  C      -18.889    -128.673     217.504
  O      -18.261    -129.178     216.576
  N      -19.866    -126.568     216.416
  C      -20.625    -125.625     216.938
  N      -20.833    -125.815     218.283
  O      -22.634    -120.165     215.424
  O      -20.511    -121.093     214.328
  H      -20.689    -123.323     221.894
  H      -22.116    -119.337     215.379
  H      -18.490    -130.155     218.828
  H      -21.040    -124.794     216.386
  H      -22.249    -125.565     219.780
  H      -19.652    -124.490     220.232
  H      -19.155    -130.367     221.053
  H      -19.946    -122.759     218.555
  H      -19.988    -129.053     221.816
  H      -22.801    -122.460     219.651
  H      -23.301    -121.916     217.255
  H      -22.301    -120.693     218.072
  P      -18.871    -121.419     220.656
  C      -18.879    -118.821     220.716
  O      -18.866    -120.030     221.453
  O      -18.208    -121.058     219.246
  O      -18.195    -122.567     221.322
  H      -17.256    -121.272     219.255
  H      -19.488    -118.909     219.813
  H      -17.855    -118.554     220.440
  H      -19.295    -118.030     221.343
  H      -23.734    -123.244     213.049
  H      -22.227    -122.456     212.648
  H      -23.601    -121.506     213.161

 3  4  5  6  7  8  9  10  11  12  23  26  30  31  33  0
 6-311+G(2d,p)
 ****
 35  36  37  38 0
 6-311+G(2d,p)
 ****
 1  2  13  14  15  16  17  18  19  20  21  22  24  25  27  28  29 0
 3-21G
 ****
 32  34  39  40  41  42  43  44  45  46  47  48  49 0
 3-21G
 ****


