%nproc=1
%NoSave
%Mem=1900MB
#P OB98/GEN NMR

erre ene a

0 1
  C       91.496     -13.671     -74.986
  O       91.414     -12.435     -75.673
  P       90.239     -12.265     -76.756
  C       87.667     -11.930     -76.626
  O       88.861     -12.270     -75.933
  C       86.438     -12.540     -75.949
  O       86.293     -13.912     -76.387
  C       86.500     -12.534     -74.421
  O       85.182     -12.283     -73.931
  C       86.889     -13.958     -74.078
  O       86.475     -14.316     -72.761
  C       86.201     -14.738     -75.209
  N       86.807     -16.048     -75.425
  C       86.004     -17.164     -75.174
  O       84.871     -17.018     -74.716
  N       86.522     -18.415     -75.399
  C       87.766     -18.543     -75.739
  N       88.231     -19.803     -75.952
  C       88.681     -17.396     -75.893
  C       88.136     -16.190     -75.744
  O       90.231     -13.680     -77.499
  O       90.427     -11.127     -77.704
  H       86.495     -15.297     -72.691
  H       89.969     -13.581     -78.433
  H       89.720     -17.559     -76.141
  H       88.725     -15.291     -75.861
  H       85.135     -14.881     -74.986
  H       87.978     -14.073     -74.140
  H       87.190     -11.783     -74.026
  H       85.552     -11.994     -76.295
  H       87.589     -20.574     -75.826
  H       87.723     -12.321     -77.645
  H       89.187     -19.999     -76.219
  H       87.577     -10.841     -76.682
  P       85.043     -11.507     -72.535
  C       85.587      -9.115     -71.779
  O       85.799     -10.111     -72.759
  O       86.100     -12.299     -71.623
  O       83.702     -11.455     -71.883
  H       86.067     -11.959     -70.711
  H       86.260      -8.277     -71.979
  H       85.799      -9.508     -70.781
  H       84.555      -8.756     -71.830
  H       92.318     -13.645     -74.301
  H       91.645     -14.462     -75.691
  H       90.588     -13.840     -74.447

 3  4  5  6  7  8  9  10  11  12  13  21  23  27  28  29  30  32 0
 6-311+G(2d,p)
 ****
 34  35 0
 6-311+G(2d,p)
 ****
 1  2  14  15  16  17  18  19  20  22  24  25  26 0
 3-21G
 ****
 31  33  36  37  38  39  40  41  42  43  44  45  46 0
 3-21G
 ****


