%nproc=1
%NoSave
%Mem=1900MB
#P OB98/GEN NMR

erre ene a

0 1
  C       25.144     -66.420     114.115
  O       26.159     -66.480     113.127
  P       27.643     -66.030     113.545
  C       27.663     -64.377     111.531
  O       28.326     -65.419     112.229
  C       28.675     -63.489     110.805
  O       29.372     -62.682     111.790
  C       29.741     -64.248     110.006
  O       30.074     -63.435     108.875
  C       30.917     -64.295     110.963
  O       32.158     -64.513     110.299
  C       30.786     -62.935     111.640
  N       35.190     -63.432     114.074
  C       34.889     -63.631     112.739
  N       35.925     -63.950     111.934
  N       33.686     -63.525     112.240
  C       32.756     -63.185     113.165
  C       32.922     -63.000     114.516
  C       34.263     -63.082     115.048
  O       34.588     -62.830     116.206
  N       31.729     -62.753     115.141
  C       30.855     -62.709     114.156
  N       31.437     -62.918     112.934
  O       28.394     -67.425     113.750
  O       27.736     -65.145     114.748
  H       32.191     -65.452     110.029
  H       28.371     -67.704     114.686
  H       36.140     -63.509     114.397
  H       29.799     -62.525     114.263
  H       31.218     -62.123     111.039
  H       30.775     -65.109     111.684
  H       36.882     -64.018     112.244
  H       29.420     -65.241     109.681
  H       35.738     -64.069     110.945
  H       28.124     -62.802     110.151
  H       27.115     -63.763     112.252
  H       26.945     -64.806     110.826
  P       29.705     -63.990     107.417
  C       32.155     -64.501     106.750
  O       30.979     -63.765     106.477
  O       28.654     -62.905     106.879
  O       29.109     -65.360     107.401
  H       28.008     -63.340     106.292
  H       32.758     -64.551     105.840
  H       31.927     -65.519     107.077
  H       32.730     -63.990     107.527
  H       24.216     -66.747     113.694
  H       25.043     -65.413     114.461
  H       25.407     -67.055     114.935

 3  4  5  6  7  8  9  10  11  12  23  26  30  31 0
 6-311+G(2d,p)
 ****
 33  35  36  37  38 0
 6-311+G(2d,p)
 ****
 1  2  13  14  15  16  17  18  19  20  21  22  24  25 0
 3-21G
 ****
 27  28  29  32  34  39  40  41  42  43  44  45  46  47  48  49 0
 3-21G
 ****


