%nproc=1
%NoSave
%Mem=1900MB
#P OB98/GEN NMR

erre ene a

0 1
  C      271.863      17.508    -152.043
  O      270.636      17.600    -152.727
  P      269.246      17.547    -151.927
  C      268.961      15.011    -152.271
  O      269.131      16.063    -151.324
  C      268.828      13.674    -151.552
  O      270.086      13.281    -150.943
  C      267.842      13.684    -150.393
  O      266.479      13.874    -150.701
  C      268.216      12.402    -149.666
  O      267.629      11.262    -150.288
  C      269.755      12.385    -149.847
  N      270.454      12.752    -148.619
  C      270.508      11.771    -147.635
  O      270.010      10.653    -147.759
  N      271.137      12.125    -146.470
  C      271.660      13.354    -146.184
  O      272.168      13.617    -145.101
  C      271.561      14.354    -147.255
  C      270.971      14.015    -148.407
  O      268.053      17.997    -152.698
  O      269.544      18.421    -150.617
  H      267.789      11.338    -151.250
  H      270.270      18.087    -150.060
  H      271.174      11.436    -145.738
  H      271.979      15.333    -147.066
  H      270.882      14.738    -149.212
  H      270.092      11.385    -150.149
  H      267.881      12.411    -148.624
  H      268.107      14.521    -149.726
  H      268.574      12.908    -152.291
  H      269.837      14.978    -152.923
  H      268.085      15.217    -152.895
  P      265.530      14.908    -149.925
  C      264.501      12.936    -148.593
  O      265.068      14.229    -148.547
  O      264.489      15.600    -150.737
  O      266.599      15.995    -149.411
  H      266.167      16.871    -149.372
  H      264.206      12.653    -147.578
  H      265.236      12.211    -148.959
  H      263.616      12.926    -149.232
  H      272.668      17.563    -152.746
  H      271.910      16.577    -151.518
  H      271.944      18.315    -151.345

 3  4  5  6  7  8  9  10  11  12  13  23  28  29  30  31  32 0
 6-311+G(2d,p)
 ****
 33  34 0
 6-311+G(2d,p)
 ****
 1  2  14  15  16  17  18  19  20  21  22  24  25  26  27 0
 3-21G
 ****
 35  36  37  38  39  40  41  42  43  44  45 0
 3-21G
 ****


