%nproc=1
%NoSave
%Mem=1900MB
#P OB98/GEN NMR

erre ene a

0 1
  C      -99.738     227.195     556.284
  O      -99.588     228.151     555.258
  H     -100.109     226.265     555.844
  H     -100.463     227.548     557.029
  H      -98.778     226.995     556.769
  P      -99.031     229.597     555.699
  C      -99.807     231.439     557.356
  O     -100.127     230.228     556.683
  C     -100.943     232.446     557.184
  O     -102.176     231.883     557.688
  C     -100.747     233.738     557.942
  O      -99.848     234.620     557.289
  C     -102.172     234.273     558.003
  O     -102.527     234.969     556.805
  C     -103.005     232.981     558.145
  N     -106.857     233.557     561.452
  C     -106.766     233.823     560.116
  N     -105.695     233.621     559.309
  C     -104.672     233.084     559.992
  C     -104.622     232.774     561.341
  C     -105.794     233.030     562.081
  N     -105.887     232.796     563.444
  N     -103.390     232.278     561.692
  C     -102.685     232.285     560.566
  N     -103.428     232.750     559.516
  O      -99.172     230.459     554.359
  O      -97.628     229.598     556.213
  H     -103.409     235.365     556.966
  H      -98.298     230.516     553.911
  H     -107.653     234.226     559.650
  H     -101.657     231.965     560.469
  H     -103.902     232.997     557.515
  H     -102.295     234.963     558.836
  H     -100.409     233.530     558.963
  H     -101.082     232.641     556.110
  H      -98.888     231.858     556.935
  H      -99.655     231.225     558.416
  H     -106.723     233.072     563.919
  H     -105.063     232.506     563.941
  P      -99.243     235.844     558.126
  C     -100.256     237.951     559.285
  O     -100.396     236.926     558.305
  O      -98.218     236.535     557.135
  O      -98.598     235.441     559.415
  H      -97.427     236.868     557.624
  H     -101.119     238.583     559.265
  H      -99.383     238.532     559.071
  H     -100.161     237.507     560.254

 6  7  8  9  10  11  12  13  14  15  25  28  32  33  34  35 0
 6-311+G(2d,p)
 ****
 36  37  40 0
 6-311+G(2d,p)
 ****
 1  2  3  4  5  16  17  18  19  20  21  22  23  24 0
 3-21G
 ****
 26  27  29  30  31  38  39 41  42  43  44  45  46  47  48 0
 3-21G
 ****


