%nproc=1
%NoSave
%Mem=1900MB
#P OB98/GEN NMR

erre ene a

0 1
  C     1019.179     943.243    -465.390
  O     1017.792     943.602    -465.263
  P     1017.243     944.108    -463.845
  C     1015.063     945.257    -464.727
  O     1015.641     944.264    -463.889
  C     1014.855     944.721    -466.155
  O     1013.937     943.581    -466.139
  C     1014.296     945.749    -467.143
  O     1014.844     945.444    -468.437
  C     1012.798     945.430    -467.126
  O     1012.104     945.914    -468.251
  C     1012.861     943.902    -467.035
  N     1011.620     943.286    -466.582
  C     1010.595     943.101    -467.514
  O     1010.639     943.486    -468.684
  N     1009.469     942.485    -467.057
  C     1009.244     942.055    -465.755
  O     1008.194     941.516    -465.390
  C     1010.344     942.292    -464.823
  C     1011.455     942.882    -465.274
  O     1017.736     945.631    -463.808
  O     1017.790     943.357    -462.659
  H     1012.233     946.889    -468.278
  H     1018.133     945.824    -462.957
  H     1008.724     942.330    -467.716
  H     1010.216     941.964    -463.800
  H     1012.291     943.060    -464.585
  H     1013.135     943.491    -468.013
  H     1012.350     945.885    -466.239
  H     1014.516     946.780    -466.868
  H     1015.832     944.338    -466.516
  H     1015.735     946.137    -464.766
  H     1014.115     945.578    -464.301
  P     1015.451     946.662    -469.303
  C     1017.546     945.434    -470.290
  O     1016.287     945.999    -470.501
  O     1016.616     947.158    -468.313
  O     1014.474     947.720    -469.664
  H     1017.129     946.429    -467.940
  H     1017.579     944.865    -469.348
  H     1018.306     946.202    -470.260
  H     1017.779     944.762    -471.099
  H     1019.376     942.930    -466.394
  H     1019.403     942.443    -464.716
  H     1019.790     944.090    -465.154

 3  4  5  6  7  8  9  10  11  12  13  23  28  29  30  31  32 0
 6-311+G(2d,p)
 ****
 33  34 0
 6-311+G(2d,p)
 ****
 1  2  14  15  16  17  18  19  20  21  22  24  25  26 0
 3-21G
 ****
 27  35  36  37  38  39  40  41  42  43  44  45 0
 3-21G
 ****


