%nproc=1
%NoSave
%Mem=1900MB
#P OB98/GEN NMR

erre ene a

0 1
  C      -68.331     190.266      38.250
  O      -67.185     190.211      37.417
  H      -69.206     190.481      37.632
  H      -68.214     191.054      38.997
  H      -68.479     189.299      38.747
  P      -65.796     189.860      38.139
  C      -65.402     192.277      39.042
  O      -65.647     190.910      39.346
  C      -65.109     193.058      40.327
  O      -64.604     194.380      39.960
  C      -66.349     193.281      41.211
  O      -65.924     193.354      42.587
  C      -66.809     194.660      40.761
  O      -67.700     195.216      41.694
  C      -65.456     195.348      40.615
  N      -64.176     200.283      40.549
  C      -63.894     199.290      41.420
  N      -64.268     197.998      41.359
  C      -64.983     197.756      40.245
  C      -65.348     198.670      39.267
  C      -64.917     199.996      39.451
  N      -65.220     201.011      38.580
  N      -66.108     198.047      38.290
  C      -66.193     196.788      38.670
  N      -65.526     196.570      39.845
  O      -64.700     190.347      37.075
  O      -65.608     188.433      38.520
  H      -67.796     196.181      41.559
  H      -64.445     189.606      36.495
  H      -63.292     199.575      42.278
  H      -66.721     196.003      38.145
  H      -65.004     195.591      41.589
  H      -67.331     194.604      39.797
  H      -67.109     192.503      41.100
  H      -64.308     192.558      40.884
  H      -66.290     192.689      38.547
  H      -64.542     192.351      38.365
  H      -64.897     201.943      38.800
  H      -65.802     200.818      37.778
  P      -66.301     192.146      43.582
  C      -68.714     192.802      44.332
  O      -67.887     191.910      43.597
  O      -66.038     192.809      45.015
  O      -65.478     190.908      43.423
  H      -65.536     192.186      45.579
  H      -69.736     192.502      44.236
  H      -68.596     193.794      43.950
  H      -68.432     192.781      45.364

 6  7  8  9  10  11  12  13  14  15  25  28  32  33  34  35 0
 6-311+G(2d,p)
 ****
 36  37  40 0
 6-311+G(2d,p)
 ****
 1  2  3  4  5  16  17  18  19  20  21  22  23  24 0
 3-21G
 ****
 26  27  29  30  31  38  39 41  42  43  44  45  46  47  48 0
 3-21G
 ****


