%nproc=1
%NoSave
%Mem=1900MB
#P OB98/GEN NMR

erre ene a

0 1
  C     -361.661    -655.362     356.945
  O     -362.870    -655.208     357.664
  H     -361.589    -656.403     356.611
  H     -360.811    -655.135     357.589
  H     -361.656    -654.712     356.067
  P     -363.178    -653.746     358.246
  C     -361.150    -654.016     359.843
  O     -361.791    -653.207     358.869
  C     -360.361    -653.145     360.822
  O     -361.300    -652.408     361.662
  C     -359.438    -653.928     361.761
  O     -358.231    -653.186     361.962
  C     -360.211    -653.973     363.068
  O     -359.375    -654.188     364.188
  C     -360.892    -652.609     363.026
  N     -362.161    -652.358     367.900
  C     -360.916    -652.358     367.293
  N     -359.846    -652.290     368.102
  N     -360.739    -652.425     365.997
  C     -361.905    -652.467     365.298
  C     -363.194    -652.482     365.780
  C     -363.382    -652.427     367.217
  O     -364.447    -652.433     367.812
  N     -364.105    -652.562     364.746
  C     -363.369    -652.601     363.645
  N     -362.022    -652.549     363.942
  O     -364.068    -654.046     359.546
  O     -363.847    -652.803     357.305
  H     -358.920    -655.050     364.068
  H     -364.692    -653.313     359.717
  H     -362.233    -652.314     368.895
  H     -363.738    -652.668     362.635
  H     -360.222    -651.792     363.315
  H     -360.956    -654.779     363.031
  H     -359.898    -652.200     369.115
  H     -359.188    -654.931     361.382
  H     -358.917    -652.285     367.677
  H     -359.804    -652.395     360.247
  H     -360.467    -654.708     359.343
  H     -361.900    -654.594     360.400
  P     -356.967    -653.560     361.054
  C     -355.593    -655.010     362.716
  O     -356.378    -654.980     361.543
  O     -355.849    -652.505     361.542
  O     -357.213    -653.437     359.585
  H     -355.705    -651.833     360.858
  H     -355.278    -656.014     362.909
  H     -356.172    -654.653     363.542
  H     -354.734    -654.386     362.586

 6  7  8  9  10  11  12  13  14  15  26  29  33  34 0
 6-311+G(2d,p)
 ****
 36  38  39  40  41 0
 6-311+G(2d,p)
 ****
 1  2  3  4  5  16  17  18  19  20  21  22  23  24  25 0
 3-21G
 ****
 27  28  30  31  32  35  37  42  43  44  45  46  47 0
 3-21G
 ****
 48  49 0
 3-21G
 ****


