%nproc=1
%NoSave
%Mem=1900MB
#P OB98/GEN NMR

erre ene a

0 1
  C       44.767      65.501       3.469
  O       44.911      65.237       4.852
  H       43.820      65.076       3.129
  H       45.584      65.039       2.908
  H       44.753      66.580       3.294
  P       46.263      65.752       5.544
  C       47.931      63.941       6.341
  O       47.334      64.599       5.233
  C       47.058      62.779       6.808
  O       46.622      62.000       5.680
  C       47.755      61.809       7.754
  O       47.713      62.297       9.084
  C       46.888      60.570       7.589
  O       45.704      60.698       8.400
  C       46.509      60.616       6.099
  N       47.117      55.965       4.012
  C       46.295      56.410       4.986
  N       46.225      57.644       5.530
  C       47.118      58.468       4.957
  C       48.022      58.155       3.954
  C       47.999      56.837       3.470
  N       48.841      56.387       2.477
  N       48.785      59.255       3.620
  C       48.306      60.228       4.366
  N       47.322      59.796       5.218
  O       46.141      66.170       6.970
  O       46.702      66.912       4.531
  H       45.161      59.905       8.233
  H       46.548      66.638       3.610
  H       45.603      55.675       5.386
  H       48.621      61.265       4.315
  H       45.469      60.309       5.936
  H       47.395      59.658       7.907
  H       48.775      61.581       7.424
  H       46.159      63.201       7.277
  H       48.078      64.647       7.167
  H       48.889      55.391       2.329
  H       49.580      57.002       2.169
  H       48.912      63.575       6.022
  P       48.526      61.568      10.260
  C       47.178      60.298      12.042
  O       47.609      60.324      10.687
  O       48.956      62.469      11.365
  O       49.755      60.869       9.515
  H       50.444      60.627      10.164
  H       46.577      59.428      12.209
  H       46.601      61.175      12.250
  H       48.031      60.271      12.687

 6  7  8  9  10  11  12  13  14  15  25  28  32  33  34  35 0
 6-311+G(2d,p)
 ****
 36  39  40 0
 6-311+G(2d,p)
 ****
 1  2  3  4  5  16  17  18  19  20  21  22  23  24 0
 3-21G
 ****
 26  27  29  30  31  37  38  41  42  43  44  45  46  47 0
 3-21G
 ****
 48 0
 3-21G
 ****


