%nproc=1
%NoSave
%Mem=1900MB
#P OB98/GEN NMR

erre ene a

0 1
  C      -46.925     558.266    -113.884
  O      -46.534     559.147    -112.839
  P      -45.759     560.495    -113.240
  C      -43.511     559.204    -113.356
  O      -44.432     560.059    -114.032
  C      -42.285     559.982    -112.887
  O      -41.501     559.139    -111.992
  C      -41.349     560.441    -114.006
  O      -40.770     561.692    -113.600
  C      -40.264     559.378    -114.012
  O      -39.065     559.831    -114.631
  C      -40.154     559.094    -112.514
  N      -35.785     556.617    -111.549
  C      -36.050     557.926    -111.746
  N      -37.242     558.510    -111.994
  C      -38.222     557.586    -112.043
  C      -38.098     556.218    -111.897
  C      -36.805     555.723    -111.634
  N      -36.532     554.394    -111.429
  N      -39.323     555.600    -112.038
  C      -40.175     556.581    -112.262
  N      -39.560     557.801    -112.251
  O      -45.201     561.010    -111.830
  O      -46.590     561.536    -113.907
  H      -38.375     559.158    -114.491
  H      -45.664     561.834    -111.569
  H      -35.197     558.598    -111.683
  H      -41.239     556.455    -112.435
  H      -39.569     559.852    -111.990
  H      -40.623     558.493    -114.559
  H      -41.836     560.553    -114.976
  H      -42.626     560.841    -112.295
  H      -43.184     558.423    -114.058
  H      -35.603     554.140    -111.112
  H      -37.305     553.750    -111.297
  H      -44.012     558.723    -112.504
  P      -40.179     562.634    -114.752
  C      -37.791     561.876    -114.091
  O      -38.736     562.051    -115.129
  O      -39.853     564.000    -113.986
  O      -41.116     562.859    -115.898
  H      -39.908     564.749    -114.604
  H      -37.165     561.011    -114.321
  H      -38.269     561.723    -113.118
  H      -37.153     562.765    -114.034
  H      -47.427     557.418    -113.467
  H      -46.057     557.939    -114.418
  H      -47.585     558.777    -114.553

 3  4  5  6  7  8  9  10  11  12  22  25  29  30  31  32 0
 6-311+G(2d,p)
 ****
 33  36  37 0
 6-311+G(2d,p)
 ****
 1  2  13  14  15  16  17  18  19  20  21  23  24  26 0
 3-21G
 ****
 27  28  34  35  38  39  40  41  42  43  44  45  46  47  48 0
 3-21G
 ****


