%nproc=1
%NoSave
%Mem=1900MB
#P OB98/GEN NMR

erre ene a

0 1
  C     -864.020     161.414    -644.246
  O     -865.272     161.034    -644.823
  P     -865.674     161.622    -646.263
  C     -866.136     159.700    -647.918
  O     -865.162     160.594    -647.389
  C     -865.823     158.252    -647.519
  O     -865.780     158.101    -646.083
  C     -866.870     157.265    -647.994
  O     -866.750     157.029    -649.390
  C     -866.581     156.069    -647.110
  O     -865.489     155.287    -647.643
  C     -866.151     156.734    -645.788
  N     -867.181     156.691    -644.754
  C     -867.307     155.468    -644.073
  O     -866.593     154.507    -644.379
  N     -868.244     155.371    -643.084
  C     -868.993     156.385    -642.794
  N     -869.905     156.232    -641.790
  C     -868.901     157.676    -643.500
  C     -867.989     157.748    -644.476
  O     -865.323     163.052    -646.497
  O     -867.265     161.400    -646.301
  H     -864.696     155.850    -647.602
  H     -867.662     162.103    -646.851
  H     -869.546     158.504    -643.222
  H     -867.865     158.665    -645.039
  H     -865.251     156.246    -645.387
  H     -867.436     155.402    -647.029
  H     -867.872     157.657    -647.769
  H     -864.840     157.991    -647.943
  H     -869.947     155.327    -641.339
  H     -866.144     159.791    -649.011
  H     -870.500     156.980    -641.465
  H     -867.125     160.005    -647.570
  P     -867.826     157.737    -650.361
  C     -866.552     157.340    -652.586
  O     -867.046     158.285    -651.636
  O     -868.203     159.071    -649.556
  O     -869.038     156.915    -650.638
  H     -869.145     159.283    -649.716
  H     -866.344     157.868    -653.520
  H     -867.282     156.547    -652.774
  H     -865.629     156.901    -652.210
  H     -863.907     160.939    -643.294
  H     -863.993     162.476    -644.120
  H     -863.223     161.111    -644.892

 3  4  5  6  7  8  9  10  11  12  13  23  27  28  29  30  32 0
 6-311+G(2d,p)
 ****
 34  35 0
 6-311+G(2d,p)
 ****
 1  2  14  15  16  17  18  19  20  21  22  24  25  26 0
 3-21G
 ****
 31  33  36  37  38  39  40  41  42  43  44  45  46 0
 3-21G
 ****


