%nproc=1
%NoSave
%Mem=1900MB
#P OB98/GEN NMR

erre ene a

0 1
  C     1007.056    -445.489     -77.129
  O     1006.567    -445.754     -75.834
  H     1007.099    -446.427     -77.684
  H     1008.071    -445.076     -77.065
  H     1006.409    -444.790     -77.665
  P     1006.134    -444.524     -74.901
  C     1007.354    -444.871     -72.658
  O     1006.150    -445.068     -73.392
  C     1007.742    -446.143     -71.886
  O     1008.434    -447.047     -72.798
  C     1008.671    -445.890     -70.687
  O     1008.381    -446.898     -69.700
  C     1010.035    -446.133     -71.306
  O     1011.018    -446.351     -70.313
  C     1009.719    -447.319     -72.223
  N     1010.753    -447.510     -73.255
  C     1011.940    -448.118     -72.840
  O     1012.157    -448.465     -71.673
  N     1012.888    -448.291     -73.804
  C     1012.807    -447.866     -75.103
  O     1013.704    -448.015     -75.919
  C     1011.550    -447.181     -75.469
  C     1010.591    -447.045     -74.540
  O     1004.876    -443.825     -75.295
  O     1007.396    -443.539     -74.931
  H     1011.391    -445.492     -70.003
  H     1007.105    -442.612     -74.826
  H     1013.751    -448.742     -73.526
  H     1011.454    -446.813     -76.482
  H     1009.665    -446.550     -74.780
  H     1009.652    -448.257     -71.645
  H     1010.359    -445.266     -71.898
  H     1008.568    -444.891     -70.255
  H     1006.822    -446.655     -71.570
  H     1007.183    -444.048     -71.945
  H     1008.165    -444.591     -73.334
  P     1008.335    -446.563     -68.132
  C     1009.895    -448.409     -67.224
  O     1008.555    -447.918     -67.302
  O     1007.140    -445.766     -67.708
  O     1009.681    -445.736     -67.852
  H     1009.548    -445.125     -67.095
  H     1009.911    -449.311     -66.649
  H     1010.517    -447.675     -66.755
  H     1010.260    -448.608     -68.210

 6  7  8  9  10  11  12  13  14  15  16  26  31  32  33  34  35 0
 6-311+G(2d,p)
 ****
 36  37 0
 6-311+G(2d,p)
 ****
 1  2  3  4  5  17  18  19  20  21  22  23  24  25 0
 3-21G
 ****
 27  28  29  30  38  39  40  41  42  43  44  45 0
 3-21G
 ****


