%nproc=1
%NoSave
%Mem=1900MB
#P OB98/GEN NMR

erre ene a

0 1
  C      122.006    -133.886      -9.062
  O      122.977    -134.938      -8.963
  P      122.534    -136.285      -8.209
  C      123.033    -138.000     -10.136
  O      123.408    -137.457      -8.869
  C      124.277    -138.370     -10.936
  O      124.951    -137.174     -11.410
  C      125.330    -139.143     -10.142
  O      124.938    -140.488      -9.932
  C      126.555    -138.957     -11.035
  O      126.524    -139.883     -12.129
  C      126.350    -137.511     -11.555
  N      127.207    -136.537     -10.893
  C      128.445    -136.299     -11.491
  O      128.817    -136.884     -12.519
  N      129.247    -135.376     -10.877
  C      128.958    -134.716      -9.725
  O      129.716    -133.885      -9.215
  C      127.657    -135.040      -9.093
  C      126.856    -135.921      -9.700
  O      121.060    -136.504      -8.800
  O      122.612    -136.176      -6.719
  H      120.985    -136.224      -9.734
  H      127.316    -139.688     -12.673
  H      130.139    -135.184     -11.300
  H      127.407    -134.543      -8.167
  H      125.899    -136.183      -9.255
  H      126.565    -137.470     -12.635
  H      127.496    -139.113     -10.487
  H      125.502    -138.648      -9.171
  H      123.964    -138.957     -11.815
  H      122.442    -137.269     -10.698
  H      122.398    -138.876      -9.961
  P      125.216    -141.110      -8.478
  C      122.692    -140.728      -7.885
  O      123.796    -141.604      -7.922
  O      125.528    -139.786      -7.630
  O      126.308    -142.123      -8.455
  H      124.899    -139.062      -7.817
  H      121.770    -141.315      -7.813
  H      122.646    -140.112      -8.788
  H      122.761    -140.081      -7.005
  H      122.432    -133.055      -9.584
  H      121.713    -133.578      -8.080
  H      121.149    -134.241      -9.595

 3  4  5  6  7  8  9  10  11  12  13  24  28  29  30  31  32 0
 6-311+G(2d,p)
 ****
 33  34 0
 6-311+G(2d,p)
 ****
 1  2  14  15  16  17  18  19  20  21  22  23  25  26  27 0
 3-21G
 ****
 35  36  37  38  39  40  41  42  43  44  45 0
 3-21G
 ****


