%nproc=1
%NoSave
%Mem=1900MB
#P OB98/GEN NMR

erre ene a

0 1
  C      197.220    -115.019      62.355
  O      196.497    -114.797      61.132
  P      194.895    -114.699      61.181
  C      194.314    -117.088      60.313
  O      194.247    -116.152      61.377
  C      193.756    -118.458      60.736
  O      193.713    -119.358      59.587
  C      194.564    -119.165      61.830
  O      193.632    -119.917      62.623
  C      195.451    -120.103      61.032
  O      195.973    -121.174      61.804
  C      194.466    -120.538      59.940
  N      195.104    -121.120      58.757
  C      195.802    -122.316      58.914
  O      195.969    -122.884      59.990
  N      196.341    -122.842      57.769
  C      196.293    -122.287      56.522
  O      196.825    -122.795      55.542
  C      195.570    -121.014      56.422
  C      195.019    -120.499      57.525
  O      194.534    -114.370      59.656
  O      194.347    -113.638      62.080
  H      196.565    -121.691      61.227
  H      193.877    -113.645      59.619
  H      196.838    -123.715      57.861
  H      195.503    -120.542      55.450
  H      194.468    -119.563      57.473
  H      193.753    -121.258      60.355
  H      196.299    -119.542      60.624
  H      195.127    -118.469      62.465
  H      192.716    -118.313      61.058
  H      195.358    -117.212      60.004
  H      193.749    -116.700      59.459
  P      193.071    -119.254      63.974
  C      195.189    -119.404      65.499
  O      194.315    -118.601      64.738
  O      192.764    -120.575      64.834
  O      191.870    -118.383      63.784
  H      193.488    -121.224      64.792
  H      195.406    -120.348      64.991
  H      194.749    -119.605      66.478
  H      196.132    -118.862      65.639
  H      198.269    -115.058      62.147
  H      196.908    -115.945      62.791
  H      197.021    -114.219      63.037

 3  4  5  6  7  8  9  10  11  12  13  23  28  29  30  31  32 0
 6-311+G(2d,p)
 ****
 33  34 0
 6-311+G(2d,p)
 ****
 1  2  14  15  16  17  18  19  20  21  22  24  25  26 0
 3-21G
 ****
 27  35  36  37  38  39  40  41  42  43  44  45 0
 3-21G
 ****


