%nproc=1
%NoSave
%Mem=1900MB
#P OB98/GEN NMR

erre ene a

0 1
  C     -745.522      58.694    -974.663
  O     -746.314      59.839    -974.335
  P     -747.059      60.667    -975.475
  C     -745.448      62.619    -974.955
  O     -746.012      61.771    -975.958
  C     -744.849      63.865    -975.585
  O     -743.545      63.536    -976.116
  C     -745.630      64.465    -976.773
  O     -746.706      65.326    -976.401
  C     -744.534      65.277    -977.450
  O     -744.352      66.515    -976.730
  C     -743.312      64.388    -977.287
  N     -741.901      64.306    -982.216
  C     -742.009      65.316    -981.312
  N     -742.407      65.266    -980.026
  C     -742.673      63.997    -979.680
  C     -742.618      62.857    -980.473
  C     -742.221      63.054    -981.807
  N     -742.108      62.011    -982.722
  N     -743.007      61.727    -979.776
  C     -743.265      62.182    -978.568
  N     -743.065      63.532    -978.456
  O     -748.409      61.211    -975.070
  O     -747.157      59.654    -976.721
  H     -745.160      67.050    -976.867
  H     -747.821      59.980    -977.360
  H     -741.732      66.301    -981.671
  H     -743.587      61.555    -977.728
  H     -742.393      64.949    -977.091
  H     -744.787      65.538    -978.481
  H     -745.966      63.662    -977.460
  H     -744.719      64.618    -974.796
  H     -744.652      62.047    -974.448
  H     -741.660      62.227    -983.617
  H     -742.160      61.069    -982.373
  H     -746.215      62.866    -974.221
  P     -747.774      65.691    -977.545
  C     -746.966      68.188    -977.408
  O     -747.238      67.040    -978.196
  O     -749.179      65.717    -977.089
  O     -747.476      64.596    -978.679
  H     -746.615      64.659    -979.122
  H     -746.470      68.932    -978.016
  H     -746.318      67.937    -976.554
  H     -747.911      68.607    -977.034
  H     -745.108      58.279    -973.768
  H     -744.730      58.985    -975.321
  H     -746.136      57.962    -975.145

 3  4  5  6  7  8  9  10  11  12  22  25  29  30  31  32 0
 6-311+G(2d,p)
 ****
 33  36  37 0
 6-311+G(2d,p)
 ****
 1  2  13  14  15  16  17  18  19  20  21  23  24  26 0
 3-21G
 ****
 27  28  34  35  38  39  40  41  42  43  44  45  46  47  48 0
 3-21G
 ****


