%nproc=1
%NoSave
%Mem=1900MB
#P OB98/GEN NMR

erre ene a

0 1
  C      -21.144      13.741     -73.921
  O      -22.005      12.637     -73.730
  H      -20.213      13.385     -74.371
  H      -20.914      14.204     -72.959
  H      -21.600      14.476     -74.590
  P      -23.506      12.967     -73.270
  C      -24.666      11.397     -74.980
  O      -24.439      12.732     -74.554
  C      -26.161      11.092     -74.984
  O      -26.830      11.869     -76.002
  C      -26.502       9.633     -75.269
  O      -26.401       8.830     -74.101
  C      -27.947       9.768     -75.719
  O      -28.799       9.957     -74.571
  C      -27.896      11.050     -76.559
  N      -29.525       8.747     -80.770
  C      -30.050       8.735     -79.492
  N      -31.164       7.994     -79.306
  N      -29.529       9.384     -78.484
  C      -28.411      10.072     -78.813
  C      -27.796      10.164     -80.042
  C      -28.387       9.448     -81.149
  O      -27.976       9.443     -82.306
  N      -26.687      10.965     -79.989
  C      -26.617      11.342     -78.728
  N      -27.637      10.822     -77.971
  O      -23.502      14.562     -73.106
  O      -23.954      12.295     -72.016
  H      -28.698       9.165     -74.013
  H      -24.080      14.803     -72.357
  H      -29.959       8.220     -81.507
  H      -25.856      11.989     -78.316
  H      -28.824      11.629     -76.493
  H      -28.309       8.883     -76.244
  H      -31.587       7.431     -80.028
  H      -25.899       9.232     -76.092
  H      -31.586       7.996     -78.387
  H      -26.571      11.402     -74.014
  H      -24.159      10.710     -74.294
  H      -24.252      11.268     -75.984
  P      -25.998       7.286     -74.294
  C      -23.994       7.474     -72.653
  O      -24.426       7.209     -73.983
  O      -26.070       7.091     -75.881
  O      -26.861       6.313     -73.568
  H      -26.206       6.148     -76.095
  H      -22.929       7.386     -72.600
  H      -24.444       6.770     -71.985
  H      -24.284       8.466     -72.375

 6  7  8  9  10  11  12  13  14  15  26  29  33  34 0
 6-311+G(2d,p)
 ****
 36  38  39  40  41 0
 6-311+G(2d,p)
 ****
 1  2  3  4  5  16  17  18  19  20  21  22  23  24  25 0
 3-21G
 ****
 27  28  30  31  32  35  37  42  43  44  45  46  47 0
 3-21G
 ****
 48  49 0
 3-21G
 ****


