%nproc=1
%NoSave
%Mem=1900MB
#P OB98/GEN NMR

erre ene a

0 1
  C      438.931    -161.915    -158.163
  O      439.486    -160.627    -158.338
  H      439.612    -162.514    -157.554
  H      438.800    -162.409    -159.133
  H      437.967    -161.843    -157.651
  P      438.677    -159.626    -159.301
  C      440.182    -160.142    -161.369
  O      438.902    -160.253    -160.765
  C      440.057    -159.427    -162.711
  O      439.010    -160.022    -163.513
  C      439.691    -157.951    -162.596
  O      440.802    -157.131    -162.255
  C      439.204    -157.681    -164.011
  O      440.332    -157.572    -164.897
  C      438.397    -158.964    -164.298
  N      436.975    -158.836    -163.961
  C      436.213    -157.990    -164.770
  O      436.728    -157.382    -165.706
  N      434.874    -157.822    -164.481
  C      434.346    -158.449    -163.475
  N      433.029    -158.232    -163.227
  C      435.109    -159.363    -162.608
  C      436.402    -159.512    -162.900
  O      439.593    -158.313    -159.336
  O      437.250    -159.374    -158.936
  H      440.867    -156.822    -164.582
  H      439.240    -157.679    -160.007
  H      434.626    -159.859    -161.776
  H      437.027    -160.165    -162.308
  H      438.477    -159.253    -165.350
  H      438.635    -156.752    -164.096
  H      438.860    -157.792    -161.902
  H      441.002    -159.563    -163.257
  H      432.543    -157.553    -163.798
  H      440.579    -161.154    -161.515
  H      432.579    -158.532    -162.367
  H      440.860    -159.580    -160.718
  P      440.525    -155.867    -161.303
  C      440.070    -154.295    -163.318
  O      439.571    -154.861    -162.118
  O      441.934    -155.109    -161.296
  O      440.061    -156.207    -159.918
  H      442.136    -154.748    -160.413
  H      439.329    -153.652    -163.744
  H      440.305    -155.076    -164.010
  H      440.953    -153.729    -163.105

 6  7  8  9  10  11  12  13  14  15  16  26  30  31  32  33  35 0
 6-311+G(2d,p)
 ****
 37  38 0
 6-311+G(2d,p)
 ****
 1  2  3  4  5  17  18  19  20  21  22  23  24  25 0
 3-21G
 ****
 27  28  29  34  36  39  40  41  42  43  44  45  46 0
 3-21G
 ****


