%nproc=1
%NoSave
%Mem=1900MB
#P OB98/GEN NMR

erre ene a

0 1
  C      -12.949     219.057    -193.167
  O      -14.053     218.245    -193.504
  H      -12.491     219.425    -194.090
  H      -12.205     218.477    -192.617
  H      -13.266     219.916    -192.569
  P      -15.005     217.711    -192.331
  C      -13.441     215.795    -191.608
  O      -14.057     217.022    -191.238
  C      -11.954     215.836    -191.268
  O      -11.350     217.020    -191.839
  C      -11.667     215.916    -189.774
  O      -11.863     214.667    -189.139
  C      -10.232     216.415    -189.786
  O       -9.310     215.339    -189.998
  C      -10.234     217.378    -190.994
  N      -10.316     218.778    -190.580
  C       -9.205     219.568    -190.859
  O       -8.200     219.149    -191.432
  N       -9.260     220.858    -190.403
  C      -10.233     221.373    -189.592
  O      -10.121     222.444    -189.007
  C      -11.410     220.515    -189.382
  C      -11.392     219.271    -189.869
  O      -16.172     216.891    -192.769
  O      -15.482     219.054    -191.596
  H      -16.391     219.269    -191.877
  H       -8.421     215.707    -189.815
  H       -8.439     221.424    -190.566
  H      -12.234     220.915    -188.806
  H      -12.234     218.608    -189.697
  H       -9.325     217.243    -191.593
  H       -9.967     216.900    -188.843
  H      -12.305     216.679    -189.313
  H      -11.471     214.957    -191.712
  H      -13.566     215.650    -192.687
  H      -13.938     214.973    -191.081
  P      -13.001     214.499    -188.022
  C      -11.552     213.040    -186.480
  O      -12.286     214.254    -186.610
  O      -14.079     213.524    -188.358
  O      -13.604     215.975    -187.861
  H      -14.578     215.926    -187.924
  H      -11.122     212.986    -185.502
  H      -10.774     213.013    -187.214
  H      -12.209     212.208    -186.627

 6  7  8  9  10  11  12  13  14  15  16  27  31  32  33  34  35 0
 6-311+G(2d,p)
 ****
 36  37 0
 6-311+G(2d,p)
 ****
 1  2  3  4  5  17  18  19  20  21  22  23  24  25 0
 3-21G
 ****
 26  28  29  30  38  39  40  41  42  43  44  45 0
 3-21G
 ****


