%nproc=1
%NoSave
%Mem=1900MB
#P OB98/GEN NMR

erre ene a

0 1
  C       65.225      47.615      76.245
  O       64.105      46.759      76.375
  H       65.069      48.262      75.379
  H       66.136      47.032      76.087
  H       65.331      48.241      77.134
  P       64.106      45.676      77.554
  C       64.705      43.664      76.048
  O       65.126      44.524      77.101
  C       65.818      42.686      75.685
  O       66.882      43.370      74.995
  C       66.461      41.992      76.886
  O       65.670      40.897      77.313
  C       67.783      41.554      76.278
  O       67.574      40.394      75.449
  C       68.143      42.767      75.399
  N       72.776      43.998      77.066
  C       72.305      42.802      76.561
  N       73.187      41.780      76.523
  N       71.080      42.620      76.143
  C       70.292      43.707      76.306
  C       70.637      44.940      76.810
  C       72.014      45.148      77.208
  O       72.477      46.202      77.638
  N       69.547      45.766      76.911
  C       68.553      45.051      76.417
  N       68.951      43.787      76.044
  O       62.763      45.165      77.978
  O       64.881      46.398      78.753
  H       67.246      39.682      76.030
  H       64.260      46.861      79.345
  H       73.729      44.076      77.380
  H       67.533      45.397      76.303
  H       68.674      42.471      74.487
  H       68.527      41.285      77.029
  H       74.093      41.814      76.965
  H       66.661      42.699      77.698
  H       72.844      40.879      76.209
  H       65.402      41.950      74.985
  H       64.454      44.294      75.189
  H       63.810      43.107      76.346
  P       65.324      40.666      78.866
  C       67.253      38.945      78.902
  O       66.665      40.078      79.517
  O       64.100      39.856      79.120
  O       65.274      42.139      79.482
  H       64.392      42.574      79.374
  H       68.135      38.665      79.440
  H       67.512      39.182      77.891
  H       66.557      38.133      78.911

 6  7  8  9  10  11  12  13  14  15  26  29  33  34 0
 6-311+G(2d,p)
 ****
 36  38  39  40  41 0
 6-311+G(2d,p)
 ****
 1  2  3  4  5  16  17  18  19  20  21  22  23  24  25 0
 3-21G
 ****
 27  28  30  31  32  35  37  42  43  44  45  46  47 0
 3-21G
 ****
 48  49 0
 3-21G
 ****


