%nproc=1
%NoSave
%Mem=1900MB
#P OB98/GEN NMR

erre ene a

0 1
  C      143.358    -413.396     210.405
  O      143.869    -412.812     209.199
  P      144.767    -411.477     209.295
  C      142.918    -409.693     209.035
  O      143.873    -410.290     209.905
  C      142.084    -408.628     209.767
  O      141.426    -407.767     208.800
  C      141.000    -409.235     210.673
  O      141.019    -408.725     212.005
  C      139.716    -409.004     209.892
  O      138.557    -409.009     210.712
  C      140.017    -407.715     209.115
  N      139.189    -407.597     207.902
  C      138.452    -406.429     207.775
  O      138.413    -405.555     208.643
  N      137.708    -406.311     206.620
  C      137.575    -407.266     205.662
  O      136.854    -407.143     204.672
  C      138.330    -408.521     205.887
  C      139.092    -408.617     206.982
  O      145.532    -411.127     208.062
  O      145.769    -411.809     210.506
  H      137.765    -409.022     210.121
  H      146.645    -411.449     210.281
  H      137.180    -405.460     206.511
  H      138.226    -409.304     205.156
  H      139.645    -409.534     207.185
  H      139.828    -406.836     209.732
  H      139.591    -409.827     209.175
  H      141.154    -410.321     210.804
  H      142.775    -408.028     210.363
  H      142.250    -410.472     208.649
  H      143.440    -409.271     208.157
  P      141.900    -409.333     213.194
  C      140.563    -411.529     213.621
  O      141.757    -410.937     213.157
  O      141.671    -408.727     214.547
  O      143.406    -409.077     212.718
  H      143.943    -408.799     213.481
  H      140.768    -412.573     213.874
  H      139.806    -411.487     212.829
  H      140.182    -411.013     214.511
  H      142.788    -414.269     210.165
  H      142.732    -412.688     210.907
  H      144.173    -413.667     211.043

 3  4  5  6  7  8  9  10  11  12  13  23  28  29  30  31  32 0
 6-311+G(2d,p)
 ****
 33  34 0
 6-311+G(2d,p)
 ****
 1  2  14  15  16  17  18  19  20  21  22  24  25  26  27 0
 3-21G
 ****
 35  36  37  38  39  40  41  42  43  44  45 0
 3-21G
 ****


