%nproc=1
%NoSave
%Mem=1900MB
#P OB98/GEN NMR

erre ene a

0 1
  C      475.668     -10.211     839.147
  O      475.745      -9.607     837.854
  P      474.472      -8.791     837.344
  C      474.108     -10.481     835.410
  O      473.553      -9.834     836.537
  C      473.217     -10.301     834.189
  O      471.905     -10.895     834.413
  C      472.930      -8.841     833.837
  O      473.983      -8.250     833.094
  C      471.686      -8.991     832.957
  O      472.062      -9.385     831.627
  C      470.936     -10.132     833.664
  N      467.105      -6.837     834.213
  C      467.850      -7.187     833.079
  N      467.554      -6.492     831.952
  N      468.774      -8.099     833.052
  C      468.959      -8.698     834.265
  C      468.300      -8.463     835.451
  C      467.282      -7.433     835.455
  O      466.632      -7.058     836.446
  N      468.762      -9.275     836.459
  C      469.702     -10.007     835.893
  N      469.883      -9.657     834.555
  O      475.063      -7.845     836.193
  O      473.766      -7.992     838.406
  H      472.720     -10.108     831.713
  H      474.439      -7.114     835.998
  H      466.410      -6.130     834.181
  H      470.274     -10.776     836.379
  H      470.464     -10.812     832.944
  H      471.110      -8.074     832.864
  H      466.888      -5.728     831.913
  H      472.673      -8.253     834.727
  H      468.109      -6.663     831.121
  H      473.673     -10.821     833.334
  H      474.222     -11.551     835.630
  H      475.110     -10.076     835.213
  P      473.988      -6.638     833.008
  C      473.094      -6.533     830.575
  O      472.870      -6.266     831.938
  O      475.371      -6.327     832.246
  O      473.908      -5.962     834.347
  H      475.690      -5.450     832.493
  H      472.153      -6.476     830.029
  H      473.511      -7.539     830.433
  H      473.799      -5.796     830.163
  H      476.585     -10.721     839.357
  H      474.858     -10.910     839.166
  H      475.504      -9.454     839.885

 3  4  5  6  7  8  9  10  11  12  23  26  30  31 0
 6-311+G(2d,p)
 ****
 33  35  36  37  38 0
 6-311+G(2d,p)
 ****
 1  2  13  14  15  16  17  18  19  20  21  22  24  25 0
 3-21G
 ****
 27  28  29  32  34  39  40  41  42  43  44  45  46  47  48  49 0
 3-21G
 ****


