%nproc=1
%NoSave
%Mem=1900MB
#P OB98/GEN NMR

erre ene a

0 1
  C      830.991    -895.170     320.206
  O      830.258    -895.510     321.364
  H      830.841    -894.110     319.996
  H      830.629    -895.760     319.351
  H      832.054    -895.360     320.359
  P      830.426    -896.980     321.994
  C      832.651    -896.420     323.166
  O      831.991    -897.230     322.190
  C      833.195    -897.300     324.281
  O      834.033    -898.340     323.744
  C      834.088    -896.540     325.271
  O      833.303    -895.770     326.166
  C      834.842    -897.700     325.921
  O      834.026    -898.330     326.947
  C      835.067    -898.640     324.719
  N      836.396    -898.530     324.144
  C      837.382    -899.290     324.765
  O      837.204    -900.000     325.744
  N      838.643    -899.190     324.199
  C      838.995    -898.340     323.203
  O      840.160    -898.220     322.799
  C      837.923    -897.540     322.606
  C      836.680    -897.670     323.093
  O      829.689    -898.070     321.273
  O      829.877    -896.810     323.495
  H      833.819    -897.620     327.591
  H      828.994    -897.220     323.564
  H      839.372    -899.730     324.647
  H      838.167    -896.860     321.791
  H      835.853    -897.090     322.694
  H      834.904    -899.670     325.021
  H      835.763    -897.370     326.407
  H      834.792    -895.920     324.739
  H      832.344    -897.780     324.796
  H      831.924    -895.700     323.573
  H      833.462    -895.850     322.662
  P      833.677    -894.240     326.441
  C      831.252    -893.480     326.041
  O      832.612    -893.310     325.663
  O      835.112    -893.870     326.194
  O      833.292    -893.990     327.963
  H      834.093    -893.750     328.483
  H      830.637    -892.819     325.467
  H      831.140    -893.257     327.082
  H      830.955    -894.492     325.859

 6  7  8  9  10  11  12  13  14  15  16  26  31  32  33  34  35 0
 6-311+G(2d,p)
 ****
 36  37 0
 6-311+G(2d,p)
 ****
 1  2  3  4  5  17  18  19  20  21  22  23  24  25 0
 3-21G
 ****
 27  28  29  30  38  39  40  41  42  43  44  45 0
 3-21G
 ****


