%nproc=1
%NoSave
%Mem=1900MB
#P OB98/GEN NMR

erre ene a

0 1
  C     -781.535    -245.220     320.170
  O     -781.408    -244.175     319.227
  P     -782.470    -244.125     318.034
  C     -782.857    -241.541     317.992
  O     -782.330    -242.687     317.327
  C     -782.223    -240.268     317.420
  O     -780.870    -240.120     317.917
  C     -782.099    -240.279     315.909
  O     -783.338    -239.974     315.278
  C     -781.031    -239.222     315.663
  O     -781.592    -237.910     315.670
  C     -780.102    -239.430     316.895
  N     -778.881    -240.146     316.565
  C     -777.707    -239.392     316.585
  O     -777.701    -238.184     316.843
  N     -776.555    -240.060     316.264
  C     -776.468    -241.373     315.863
  O     -775.414    -241.902     315.526
  C     -777.745    -242.116     315.823
  C     -778.870    -241.473     316.163
  O     -783.888    -244.053     318.761
  O     -782.384    -245.276     317.079
  H     -782.083    -237.819     316.516
  H     -784.551    -244.556     318.243
  H     -775.699    -239.537     316.294
  H     -777.714    -243.144     315.527
  H     -779.815    -241.995     316.133
  H     -779.839    -238.451     317.323
  H     -780.517    -239.350     314.712
  H     -781.730    -241.254     315.564
  H     -782.811    -239.409     317.755
  H     -782.638    -241.610     319.067
  H     -783.947    -241.524     317.863
  P     -783.944    -241.064     314.264
  C     -786.486    -240.432     314.392
  O     -785.263    -240.394     313.673
  O     -784.468    -242.166     315.309
  O     -782.937    -241.581     313.276
  H     -784.773    -241.780     316.143
  H     -786.295    -240.348     315.478
  H     -787.001    -241.365     314.190
  H     -787.104    -239.600     314.085
  H     -780.764    -245.131     320.907
  H     -781.445    -246.163     319.672
  H     -782.492    -245.157     320.645

 3  4  5  6  7  8  9  10  11  12  13  23  28  29  30  31  32 0
 6-311+G(2d,p)
 ****
 33  34 0
 6-311+G(2d,p)
 ****
 1  2  14  15  16  17  18  19  20  21  22  24  25  26 0
 3-21G
 ****
 27  35  36  37  38  39  40  41  42  43  44  45 0
 3-21G
 ****


