%nproc=1
%NoSave
%Mem=1900MB
#P OB98/GEN NMR

erre ene a

0 1
  C     -165.382       0.483      13.678
  O     -164.552      -0.055      12.669
  H     -166.356       0.758      13.264
  H     -165.527      -0.275      14.454
  H     -164.906       1.360      14.127
  P     -164.304       0.873      11.382
  C     -166.030       2.007       9.817
  O     -165.663       0.835      10.526
  C     -166.704       1.638       8.502
  O     -165.732       1.114       7.572
  C     -167.774       0.557       8.614
  O     -169.003       1.075       9.104
  C     -167.889       0.122       7.160
  O     -168.719       1.053       6.440
  C     -166.437       0.225       6.667
  N     -165.664      -4.095       4.000
  C     -166.431      -3.009       3.755
  N     -166.597      -1.907       4.511
  C     -165.853      -1.977       5.629
  C     -165.025      -3.018       6.013
  C     -164.946      -4.121       5.147
  N     -164.175      -5.232       5.415
  N     -164.411      -2.734       7.213
  C     -164.860      -1.542       7.551
  N     -165.741      -1.046       6.626
  O     -163.284       0.013      10.493
  O     -163.766       2.233      11.670
  H     -169.571       1.090       6.914
  H     -162.666       0.621      10.044
  H     -166.985      -3.028       2.819
  H     -164.573      -1.002       8.445
  H     -166.382       0.677       5.670
  H     -168.330      -0.870       7.043
  H     -167.423      -0.288       9.218
  H     -167.123       2.555       8.066
  H     -165.134       2.601       9.605
  H     -164.005      -5.892       4.677
  H     -163.633      -5.237       6.275
  H     -166.709       2.599      10.440
  P     -169.754       0.236      10.250
  C     -171.028      -2.024      10.308
  O     -170.378      -1.043       9.508
  O     -171.038       1.137      10.573
  O     -168.945      -0.037      11.471
  H     -171.345       0.959      11.484
  H     -171.391      -2.812       9.681
  H     -171.848      -1.574      10.827
  H     -170.333      -2.424      11.017

 6  7  8  9  10  11  12  13  14  15  25  28  32  33  34  35 0
 6-311+G(2d,p)
 ****
 36  39  40 0
 6-311+G(2d,p)
 ****
 1  2  3  4  5  16  17  18  19  20  21  22  23  24 0
 3-21G
 ****
 26  27  29  30  31  37  38  41  42  43  44  45  46  47  48 0
 3-21G
 ****


