%nproc=1
%NoSave
%Mem=1900MB
#P OB98/GEN NMR

erre ene a

0 1
  C     -761.208     355.696     161.492
  O     -762.398     356.378     161.085
  P     -762.515     357.928     161.470
  C     -762.535     358.869     159.037
  O     -763.253     358.688     160.265
  C     -763.509     358.878     157.858
  O     -763.888     357.542     157.464
  C     -764.819     359.591     158.156
  O     -764.642     360.992     158.172
  C     -765.703     359.065     157.036
  O     -765.420     359.776     155.812
  C     -765.210     357.610     156.910
  N     -769.912     355.575     157.062
  C     -769.360     356.522     156.256
  N     -768.108     357.007     156.279
  C     -767.384     356.422     157.260
  C     -767.814     355.450     158.149
  C     -769.146     355.026     158.032
  N     -769.714     354.085     158.861
  N     -766.789     355.099     159.005
  C     -765.770     355.853     158.656
  N     -766.079     356.660     157.598
  O     -761.000     358.444     161.377
  O     -763.099     358.168     162.820
  H     -764.494     359.568     155.574
  H     -760.657     358.620     162.274
  H     -770.011     356.925     155.502
  H     -764.799     355.857     159.135
  H     -765.155     357.285     155.857
  H     -766.775     359.167     157.233
  H     -765.224     359.262     159.134
  H     -763.002     359.366     157.015
  H     -761.800     358.068     158.913
  H     -770.705     353.903     158.756
  H     -769.178     353.733     159.640
  H     -761.971     359.802     159.089
  P     -765.837     361.899     158.738
  C     -764.521     362.486     160.871
  O     -765.105     362.982     159.678
  O     -766.506     360.921     159.807
  O     -766.758     362.455     157.711
  H     -765.832     360.473     160.359
  H     -764.027     363.310     161.386
  H     -763.795     361.710     160.644
  H     -765.310     362.081     161.527
  H     -761.256     354.675     161.175
  H     -761.121     355.735     162.558
  H     -760.357     356.168     161.047

 3  4  5  6  7  8  9  10  11  12  22  25  29  30  31  32 0
 6-311+G(2d,p)
 ****
 33  36  37 0
 6-311+G(2d,p)
 ****
 1  2  13  14  15  16  17  18  19  20  21  23  24  26 0
 3-21G
 ****
 27  28  34  35  38  39  40  41  42  43  44  45  46  47  48 0
 3-21G
 ****


