%nproc=1
%NoSave
%Mem=1900MB
#P OB98/GEN NMR

erre ene a

0 1
  C     -316.096    -114.930     278.540
  O     -316.064    -114.036     277.444
  H     -317.026    -115.503     278.530
  H     -315.254    -115.621     278.452
  H     -316.006    -114.379     279.481
  P     -317.209    -112.913     277.399
  C     -315.804    -111.199     276.048
  O     -316.938    -112.052     276.072
  C     -315.915    -110.206     274.897
  O     -315.827    -110.895     273.635
  C     -317.228    -109.433     274.848
  O     -317.236    -108.347     275.767
  C     -317.215    -108.943     273.408
  O     -316.349    -107.799     273.289
  C     -316.604    -110.141     272.666
  N     -319.667    -110.891     268.634
  C     -318.727    -109.954     268.895
  N     -317.939    -109.831     269.983
  C     -318.175    -110.828     270.852
  C     -319.081    -111.867     270.718
  C     -319.858    -111.880     269.545
  N     -320.861    -112.808     269.324
  N     -319.050    -112.691     271.831
  C     -318.158    -112.139     272.627
  N     -317.598    -111.019     272.080
  O     -316.782    -111.924     278.590
  O     -318.602    -113.419     277.572
  H     -316.283    -107.593     272.337
  H     -317.293    -112.149     279.390
  H     -318.600    -109.195     268.129
  H     -317.887    -112.518     273.607
  H     -315.918    -109.832     271.870
  H     -318.204    -108.642     273.046
  H     -318.093    -110.092     274.995
  H     -315.059    -109.518     274.958
  H     -314.897    -111.800     275.921
  H     -321.613    -112.457     268.738
  H     -321.130    -113.340     270.143
  H     -315.745    -110.666     277.005
  P     -318.628    -107.970     276.464
  C     -317.798    -107.479     278.868
  O     -318.283    -106.936     277.643
  O     -319.016    -109.317     277.238
  O     -319.718    -107.554     275.533
  H     -319.901    -109.622     276.957
  H     -317.610    -106.685     279.560
  H     -316.890    -108.016     278.686
  H     -318.529    -108.144     279.278

 6  7  8  9  10  11  12  13  14  15  25  28  32  33  34  35 0
 6-311+G(2d,p)
 ****
 36  39  40 0
 6-311+G(2d,p)
 ****
 1  2  3  4  5  16  17  18  19  20  21  22  23  24 0
 3-21G
 ****
 26  27  29  30  31  37  38  41  42  43  44  45  46  47  48 0
 3-21G
 ****


