%nproc=1
%NoSave
%Mem=1900MB
#P OB98/GEN NMR

erre ene a

0 1
  C      520.797     300.843     245.224
  O      519.774     300.101     244.579
  H      520.337     301.502     245.962
  H      521.337     301.453     244.492
  H      521.490     300.167     245.730
  P      520.243     299.144     243.376
  C      519.557     300.862     241.539
  O      519.314     299.603     242.153
  C      518.724     300.983     240.266
  O      519.168     300.020     239.282
  C      517.233     300.707     240.462
  O      516.537     301.806     241.031
  C      516.816     300.447     239.025
  O      516.720     301.694     238.314
  C      518.000     299.597     238.517
  N      517.781     298.163     238.666
  C      517.351     297.464     237.534
  O      517.145     298.060     236.472
  N      517.113     296.112     237.630
  C      517.307     295.500     238.755
  N      517.045     294.166     238.807
  C      517.788     296.181     239.977
  C      517.998     297.500     239.858
  O      519.620     297.715     243.765
  O      521.706     299.123     243.091
  H      516.312     302.337     238.926
  H      519.749     297.083     243.019
  H      517.920     295.646     240.894
  H      518.348     298.071     240.713
  H      518.204     299.812     237.460
  H      515.836     299.958     238.954
  H      517.066     299.795     241.049
  H      518.891     301.987     239.843
  H      516.666     293.728     237.975
  H      520.620     300.930     241.298
  H      517.000     293.648     239.673
  H      519.287     301.673     242.218
  P      515.602     301.524     242.297
  C      513.706     302.761     241.026
  O      514.411     302.602     242.245
  O      516.490     302.019     243.532
  O      515.162     300.094     242.454
  H      516.384     301.427     244.298
  H      512.949     303.508     241.146
  H      513.250     301.832     240.754
  H      514.386     303.063     240.257

 6  7  8  9  10  11  12  13  14  15  16  26  30  31  32  33  35 0
 6-311+G(2d,p)
 ****
 37  38 0
 6-311+G(2d,p)
 ****
 1  2  3  4  5  17  18  19  20  21  22  23  24  25 0
 3-21G
 ****
 27  28  29  34  36  39  40  41  42  43  44  45  46 0
 3-21G
 ****


