%nproc=1
%NoSave
%Mem=1900MB
#P OB98/GEN NMR

erre ene a

0 1
  C       48.446    -100.395      42.852
  O       48.983     -99.063      42.929
  P       48.945     -98.130      41.621
  C       48.728     -95.898      42.956
  O       49.435     -96.644      41.979
  C       49.155     -94.422      42.947
  O       50.454     -94.272      43.592
  C       49.276     -93.804      41.547
  O       48.912     -92.421      41.664
  C       50.761     -93.930      41.259
  O       51.212     -93.051      40.240
  C       51.333     -93.625      42.649
  N       52.716     -94.063      42.839
  C       53.670     -93.100      43.150
  O       53.442     -91.894      43.216
  N       54.942     -93.568      43.361
  C       55.353     -94.864      43.252
  O       56.514     -95.215      43.424
  C       54.309     -95.834      42.894
  C       53.062     -95.396      42.707
  O       47.369     -97.923      41.407
  O       49.557     -98.720      40.394
  H       51.094     -92.141      40.567
  H       47.145     -98.051      40.466
  H       55.643     -92.884      43.601
  H       54.592     -96.874      42.804
  H       52.272     -96.097      42.454
  H       51.266     -92.548      42.843
  H       50.983     -94.954      40.941
  H       48.647     -94.300      40.803
  H       48.437     -93.857      43.554
  H       48.928     -96.319      43.946
  H       47.654     -95.979      42.759
  P       47.351     -92.035      41.631
  C       47.403     -90.312      43.599
  O       47.218     -90.553      42.223
  O       46.804     -92.958      42.825
  O       46.676     -92.298      40.325
  H       47.367     -92.922      43.615
  H       48.240     -90.892      43.998
  H       46.491     -90.569      44.143
  H       47.614     -89.250      43.745
  H       48.549    -100.877      43.802
  H       48.979    -100.952      42.110
  H       47.410    -100.347      42.587

 3  4  5  6  7  8  9  10  11  12  13  23  28  29  30  31  32 0
 6-311+G(2d,p)
 ****
 33  34 0
 6-311+G(2d,p)
 ****
 1  2  14  15  16  17  18  19  20  21  22  24  25  26 0
 3-21G
 ****
 27  35  36  37  38  39  40  41  42  43  44  45 0
 3-21G
 ****


