%nproc=1
%NoSave
%Mem=1900MB
#P OB98/GEN NMR

erre ene a

0 1
  C     -382.379     320.224    -600.158
  O     -381.277     320.275    -601.040
  H     -382.896     319.269    -600.300
  H     -383.067     321.035    -600.393
  H     -382.056     320.306    -599.113
  P     -380.152     321.385    -600.736
  C     -381.240     322.920    -602.539
  O     -380.770     322.798    -601.203
  C     -382.466     323.818    -602.596
  O     -382.067     325.178    -602.284
  C     -383.161     323.851    -603.979
  O     -384.592     323.940    -603.778
  C     -382.672     325.170    -604.567
  O     -383.548     325.673    -605.573
  C     -382.610     326.034    -603.304
  N     -382.882     330.879    -604.612
  C     -383.887     329.972    -604.290
  N     -385.156     330.412    -604.394
  N     -383.646     328.746    -603.914
  C     -382.336     328.439    -603.837
  C     -381.252     329.241    -604.127
  C     -381.514     330.600    -604.560
  O     -380.680     331.432    -604.884
  N     -380.060     328.547    -603.982
  C     -380.436     327.339    -603.627
  N     -381.798     327.221    -603.522
  O     -379.047     321.072    -601.862
  O     -379.573     321.353    -599.361
  H     -383.202     326.515    -605.884
  H     -378.353     320.485    -601.487
  H     -383.118     331.803    -604.915
  H     -379.755     326.507    -603.453
  H     -383.596     326.378    -602.971
  H     -381.675     325.049    -605.009
  H     -385.421     331.346    -604.642
  H     -382.929     322.993    -604.614
  H     -385.905     329.759    -604.121
  H     -383.183     323.507    -601.812
  H     -381.494     321.930    -602.929
  H     -380.427     323.337    -603.167
  P     -385.450     322.648    -604.044
  C     -385.819     322.846    -606.621
  O     -385.201     322.124    -605.545
  O     -386.951     323.204    -604.102
  O     -385.306     321.589    -602.984
  H     -387.573     322.543    -603.721
  H     -385.565     322.384    -607.552
  H     -385.471     323.858    -606.618
  H     -386.881     322.834    -606.495

 6  7  8  9  10  11  12  13  14  15  26  29  33  34 0
 6-311+G(2d,p)
 ****
 36  38  39  40  41 0
 6-311+G(2d,p)
 ****
 1  2  3  4  5  16  17  18  19  20  21  22  23  24  25 0
 3-21G
 ****
 27  28  30  31  32  35  37  42  43  44  45  46  47 0
 3-21G
 ****
 48  49 0
 3-21G
 ****


