%nproc=1
%NoSave
%Mem=1900MB
#P OB98/GEN NMR

erre ene a

0 1
  C       62.615     339.375      16.418
  O       61.948     338.348      15.714
  P       60.615     338.648      14.881
  C       58.813     337.693      16.431
  O       59.544     337.507      15.228
  C       58.375     336.355      17.030
  O       57.601     335.620      16.048
  C       59.536     335.458      17.479
  O       59.126     334.801      18.684
  C       59.661     334.460      16.345
  O       60.308     333.263      16.744
  C       58.190     334.307      15.939
  N       58.037     333.765      14.599
  C       58.474     332.454      14.393
  O       59.080     331.856      15.282
  N       58.223     331.865      13.177
  C       57.757     332.582      12.201
  N       57.459     331.941      11.037
  C       57.519     334.036      12.316
  C       57.635     334.548      13.538
  O       60.820     338.880      13.419
  O       59.995     339.950      15.584
  H       59.835     340.633      14.904
  H       60.289     332.627      15.996
  H       57.250     334.612      11.444
  H       57.454     335.599      13.733
  H       57.661     333.656      16.647
  H       60.239     334.904      15.524
  H       60.457     336.021      17.670
  H       57.712     336.563      17.876
  H       57.599     330.939      11.010
  H       57.925     338.288      16.204
  H       56.816     332.336      10.355
  H       59.417     338.258      17.151
  P       59.431     335.520      20.088
  C       61.295     333.890      20.862
  O       60.006     334.412      21.093
  O       57.947     335.755      20.661
  O       60.160     336.824      20.026
  H       57.961     336.505      21.282
  H       61.492     333.106      21.596
  H       62.052     334.674      20.974
  H       61.363     333.454      19.859
  H       63.477     338.971      16.906
  H       61.955     339.793      17.149
  H       62.918     340.139      15.733

 3  4  5  6  7  8  9  10  11  12  13  24  27  28  29  30  32 0
 6-311+G(2d,p)
 ****
 34  35 0
 6-311+G(2d,p)
 ****
 1  2  14  15  16  17  18  19  20  21  22  23  25  26 0
 3-21G
 ****
 31  33  36  37  38  39  40  41  42  43  44  45  46 0
 3-21G
 ****


