%nproc=1
%NoSave
%Mem=1900MB
#P OB98/GEN NMR

erre ene a

0 1
  C      330.593    -144.011      76.071
  O      330.667    -142.609      76.234
  H      331.597    -144.430      76.169
  H      330.210    -144.246      75.074
  H      329.947    -144.458      76.835
  P      329.279    -141.831      76.457
  C      326.979    -141.907      75.250
  O      328.382    -142.121      75.155
  C      326.242    -142.763      74.227
  O      326.325    -144.160      74.587
  C      324.755    -142.445      74.092
  O      324.535    -141.344      73.218
  C      324.243    -143.739      73.477
  O      324.573    -143.772      72.070
  C      325.062    -144.795      74.233
  N      321.021    -147.191      76.152
  C      321.283    -146.793      74.854
  N      320.326    -147.071      73.939
  N      322.380    -146.182      74.485
  C      323.233    -145.951      75.511
  C      323.083    -146.290      76.840
  C      321.874    -146.980      77.232
  O      321.600    -147.361      78.370
  N      324.161    -145.888      77.586
  C      324.951    -145.289      76.717
  N      324.434    -145.300      75.445
  O      329.706    -140.296      76.288
  O      328.619    -142.072      77.772
  H      325.496    -143.472      71.989
  H      329.773    -139.888      77.174
  H      320.158    -147.651      76.386
  H      325.910    -144.844      76.953
  H      325.295    -145.663      73.608
  H      323.158    -143.838      73.550
  H      319.452    -147.519      74.159
  H      324.283    -142.288      75.072
  H      320.502    -146.793      72.978
  H      326.752    -142.647      73.260
  H      326.767    -140.849      75.060
  H      326.648    -142.160      76.262
  P      323.180    -140.501      73.388
  C      320.693    -140.837      72.732
  O      321.984    -141.421      72.835
  O      323.330    -139.368      72.264
  O      322.964    -139.904      74.738
  H      323.451    -138.492      72.686
  H      320.003    -141.561      72.352
  H      320.732    -139.999      72.067
  H      320.371    -140.510      73.699

 6  7  8  9  10  11  12  13  14  15  26  29  33  34 0
 6-311+G(2d,p)
 ****
 36  38  39  40  41 0
 6-311+G(2d,p)
 ****
 1  2  3  4  5  16  17  18  19  20  21  22  23  24  25 0
 3-21G
 ****
 27  28  30  31  32  35  37  42  43  44  45  46  47 0
 3-21G
 ****
 48  49 0
 3-21G
 ****


