%nproc=1
%NoSave
%Mem=1900MB
#P OB98/GEN NMR

erre ene a

0 1
  C      187.247     105.244    -321.578
  O      186.942     104.356    -322.658
  P      185.760     104.576    -323.710
  C      185.896     105.731    -326.064
  O      186.413     104.763    -325.161
  C      186.802     105.967    -327.293
  O      188.159     106.235    -326.846
  C      186.866     104.704    -328.158
  O      185.845     104.443    -329.107
  C      188.276     104.712    -328.745
  O      188.331     105.317    -330.032
  C      189.070     105.539    -327.727
  N      193.283     102.625    -327.739
  C      192.609     103.192    -328.802
  N      193.090     102.913    -330.038
  N      191.555     103.955    -328.674
  C      191.133     104.081    -327.397
  C      191.701     103.546    -326.256
  C      192.903     102.754    -326.410
  O      193.540     102.234    -325.495
  N      190.977     103.878    -325.136
  C      189.966     104.579    -325.593
  N      190.014     104.741    -326.963
  O      184.711     105.554    -323.307
  O      185.069     103.118    -323.797
  H      189.274     105.414    -330.281
  H      184.115     103.273    -323.963
  H      194.103     102.068    -327.897
  H      189.171     105.004    -324.984
  H      189.665     106.321    -328.232
  H      188.642     103.688    -328.861
  H      193.818     102.243    -330.215
  H      186.842     103.842    -327.477
  H      192.481     103.149    -330.826
  H      186.490     106.857    -327.845
  H      185.775     106.661    -325.498
  H      184.896     105.438    -326.396
  P      184.738     103.289    -329.010
  C      182.546     103.124    -330.331
  O      183.959     103.234    -330.409
  O      183.636     103.893    -328.014
  O      185.238     101.968    -328.514
  H      183.051     103.181    -327.684
  H      182.161     102.796    -331.303
  H      182.118     104.108    -330.101
  H      182.245     102.402    -329.564
  H      188.082     104.863    -321.028
  H      186.399     105.322    -320.930
  H      187.488     106.211    -321.968

 3  4  5  6  7  8  9  10  11  12  23  26  30  31 0
 6-311+G(2d,p)
 ****
 33  35  36  37  38 0
 6-311+G(2d,p)
 ****
 1  2  13  14  15  16  17  18  19  20  21  22  24  25 0
 3-21G
 ****
 27  28  29  32  34  39  40  41  42  43  44  45  46  47  48  49 0
 3-21G
 ****


