%nproc=1
%NoSave
%Mem=1900MB
#P OB98/GEN NMR

erre ene a

0 1
  C     -553.710     616.176     629.722
  O     -554.701     617.172     629.518
  P     -554.336     618.726     629.680
  C     -555.528     620.941     629.111
  O     -555.523     619.522     628.950
  C     -556.307     621.598     627.963
  O     -555.669     621.318     626.690
  C     -557.747     621.144     627.821
  O     -558.568     621.740     628.805
  C     -558.058     621.560     626.399
  O     -558.423     622.938     626.332
  C     -556.703     621.321     625.682
  N     -556.699     620.079     624.902
  C     -556.684     620.231     623.512
  O     -556.685     621.367     623.012
  N     -556.674     619.110     622.721
  C     -556.737     617.938     623.269
  N     -556.739     616.862     622.437
  C     -556.796     617.727     624.728
  C     -556.778     618.836     625.469
  O     -552.952     619.105     629.264
  O     -554.628     618.998     631.226
  H     -557.611     623.458     626.524
  H     -553.922     618.612     631.809
  H     -556.839     616.740     625.145
  H     -556.826     618.784     626.568
  H     -556.480     622.141     624.998
  H     -558.888     620.977     625.963
  H     -557.805     620.039     627.891
  H     -556.275     622.695     628.119
  H     -556.726     617.046     621.441
  H     -554.497     621.292     629.093
  H     -556.820     615.905     622.762
  H     -555.979     621.191     630.074
  P     -560.116     621.353     628.909
  C     -561.938     621.346     630.734
  O     -560.529     621.427     630.452
  O     -560.515     620.089     628.201
  O     -560.862     622.619     628.275
  H     -561.564     622.290     627.670
  H     -562.058     621.084     631.799
  H     -562.419     620.614     630.116
  H     -562.373     622.326     630.550
  H     -554.140     615.208     629.570
  H     -553.334     616.246     630.721
  H     -552.909     616.323     629.028

 3  4  5  6  7  8  9  10  11  12  13  23  27  28  29  30  32 0
 6-311+G(2d,p)
 ****
 34  35 0
 6-311+G(2d,p)
 ****
 1  2  14  15  16  17  18  19  20  21  22  24  25  26 0
 3-21G
 ****
 31  33  36  37  38  39  40  41  42  43  44  45  46 0
 3-21G
 ****


