%nproc=1
%NoSave
%Mem=1900MB
#P OB98/GEN NMR

erre ene a

0 1
  C     -452.752      -1.629    -231.571
  O     -453.366      -1.221    -230.361
  P     -454.971      -1.113    -230.361
  C     -454.969      -0.091    -227.955
  O     -455.347       0.044    -229.318
  C     -454.919       1.286    -227.297
  O     -453.702       1.970    -227.653
  C     -456.062       2.212    -227.699
  O     -457.226       1.921    -226.949
  C     -455.460       3.585    -227.402
  O     -455.561       3.892    -225.995
  C     -453.994       3.386    -227.815
  N     -453.753       7.337    -230.958
  C     -454.249       7.254    -229.674
  N     -454.707       8.403    -229.131
  N     -454.293       6.150    -228.977
  C     -453.813       5.072    -229.653
  C     -453.308       5.029    -230.932
  C     -453.221       6.267    -231.668
  O     -452.697       6.410    -232.771
  N     -452.944       3.752    -231.281
  C     -453.194       3.040    -230.199
  N     -453.707       3.798    -229.178
  O     -455.421      -2.461    -229.631
  O     -455.596      -0.951    -231.711
  H     -456.492       3.818    -225.717
  H     -455.683      -3.139    -230.286
  H     -453.729       8.222    -231.436
  H     -453.007       1.985    -230.100
  H     -453.307       3.935    -227.161
  H     -455.977       4.386    -227.935
  H     -454.728       9.289    -229.612
  H     -456.263       2.125    -228.773
  H     -455.081       8.362    -228.189
  H     -454.912       1.139    -226.208
  H     -453.979      -0.553    -227.905
  H     -455.692      -0.740    -227.448
  P     -458.633       2.394    -227.548
  C     -459.515       2.496    -225.111
  O     -459.427       3.129    -226.367
  O     -459.431       1.017    -227.754
  O     -458.538       3.158    -228.824
  H     -459.984       1.078    -228.555
  H     -459.586       3.260    -224.330
  H     -458.640       1.866    -224.910
  H     -460.416       1.873    -225.076
  H     -451.691      -1.661    -231.439
  H     -452.995      -0.933    -232.347
  H     -453.107      -2.602    -231.841

 3  4  5  6  7  8  9  10  11  12  23  26  30  31 0
 6-311+G(2d,p)
 ****
 33  35  36  37  38 0
 6-311+G(2d,p)
 ****
 1  2  13  14  15  16  17  18  19  20  21  22  24  25 0
 3-21G
 ****
 27  28  29  32  34  39  40  41  42  43  44  45  46  47  48  49 0
 3-21G
 ****


