%nproc=1
%NoSave
%Mem=1900MB
#P OB98/GEN NMR

erre ene a

0 1
  C      122.428    -647.920      14.579
  O      122.872    -646.896      13.722
  P      124.034    -647.178      12.656
  C      122.426    -648.484      11.072
  O      123.613    -648.492      11.845
  C      122.737    -648.671       9.575
  O      123.537    -649.886       9.443
  C      121.517    -648.887       8.686
  O      121.895    -648.637       7.328
  C      121.244    -650.358       8.875
  O      120.447    -650.906       7.815
  C      122.677    -650.961       8.996
  N      122.715    -652.075       9.959
  C      122.192    -653.298       9.517
  O      121.788    -653.484       8.369
  N      122.066    -654.286      10.474
  C      122.380    -654.125      11.795
  O      121.990    -654.885      12.681
  C      123.126    -652.917      12.144
  C      123.237    -651.943      11.223
  O      125.240    -647.664      13.576
  O      124.420    -646.003      11.815
  H      120.224    -651.828       8.083
  H      125.848    -646.921      13.774
  H      121.566    -655.113      10.189
  H      123.523    -652.819      13.152
  H      123.749    -651.007      11.474
  H      123.031    -651.335       8.026
  H      120.701    -650.510       9.806
  H      120.645    -648.270       8.957
  H      123.346    -647.839       9.213
  H      121.899    -647.533      11.228
  H      121.759    -649.279      11.388
  P      120.787    -648.031       6.337
  C      121.670    -645.809       7.272
  O      120.537    -646.515       6.834
  O      119.555    -648.846       6.133
  O      121.605    -647.816       4.967
  H      120.975    -647.732       4.226
  H      121.511    -644.727       7.074
  H      122.583    -646.126       6.750
  H      121.792    -645.943       8.347
  H      121.654    -647.543      15.214
  H      123.245    -648.263      15.178
  H      122.047    -648.733      13.996

 3  4  5  6  7  8  9  10  11  12  13  23  28  29  30  31  32 0
 6-311+G(2d,p)
 ****
 33  34 0
 6-311+G(2d,p)
 ****
 1  2  14  15  16  17  18  19  20  21  22  24  25  26  27 0
 3-21G
 ****
 35  36  37  38  39  40  41  42  43  44  45 0
 3-21G
 ****


