%nproc=1
%NoSave
%Mem=1900MB
#P OB98/GEN NMR

erre ene a

0 1
  C     -292.280     -16.281     288.731
  O     -293.018     -15.073     288.774
  H     -291.516     -16.252     289.514
  H     -291.784     -16.381     287.762
  H     -292.943     -17.132     288.910
  P     -294.211     -14.924     287.709
  C     -295.584     -16.803     288.845
  O     -294.895     -16.374     287.678
  C     -297.097     -16.797     288.608
  O     -297.435     -17.632     287.486
  C     -297.917     -17.317     289.776
  O     -298.089     -16.316     290.769
  C     -299.232     -17.648     289.077
  O     -299.996     -16.443     288.884
  C     -298.759     -18.190     287.714
  N     -297.471     -22.139     284.688
  C     -297.579     -20.816     284.442
  N     -297.971     -19.831     285.279
  C     -298.266     -20.327     286.494
  C     -298.209     -21.653     286.893
  C     -297.777     -22.587     285.932
  N     -297.664     -23.938     286.190
  N     -298.591     -21.787     288.214
  C     -298.829     -20.550     288.621
  N     -298.678     -19.638     287.605
  O     -293.832     -14.344     286.390
  O     -295.270     -14.065     288.553
  H     -300.674     -16.631     288.202
  H     -295.281     -14.356     289.482
  H     -297.312     -20.500     283.436
  H     -299.090     -20.271     289.631
  H     -299.406     -17.850     286.895
  H     -299.855     -18.330     289.660
  H     -297.491     -18.242     290.189
  H     -297.393     -15.771     288.345
  H     -295.340     -16.154     289.693
  H     -297.517     -24.550     285.405
  H     -298.010     -24.282     287.074
  H     -295.243     -17.818     289.080
  P     -298.328     -16.711     292.303
  C     -295.787     -16.528     292.664
  O     -296.944     -17.337     292.838
  O     -299.530     -17.557     292.556
  O     -298.414     -15.313     293.071
  H     -299.087     -15.353     293.770
  H     -294.932     -17.040     293.053
  H     -295.917     -15.603     293.186
  H     -295.642     -16.332     291.622

 6  7  8  9  10  11  12  13  14  15  25  28  32  33  34  35 0
 6-311+G(2d,p)
 ****
 36  39  40 0
 6-311+G(2d,p)
 ****
 1  2  3  4  5  16  17  18  19  20  21  22  23  24 0
 3-21G
 ****
 26  27  29  30  31  37  38  41  42  43  44  45  46  47 0
 3-21G
 ****
 48 0
 3-21G
 ****


