%nproc=1
%NoSave
%Mem=1900MB
#P OB98/GEN NMR

erre ene a

0 1
  C     -815.535     248.105    -891.990
  O     -816.134     249.370    -892.310
  P     -817.535     249.706    -891.600
  C     -817.021     252.197    -890.970
  O     -817.273     250.866    -890.500
  C     -815.564     252.328    -891.380
  O     -815.202     251.405    -892.460
  C     -815.216     253.715    -891.930
  O     -815.101     254.642    -890.850
  C     -813.878     253.409    -892.620
  O     -812.808     253.338    -891.670
  C     -814.163     252.029    -893.230
  N     -812.774     253.565    -897.920
  C     -812.187     253.697    -896.720
  N     -812.617     253.266    -895.530
  C     -813.793     252.622    -895.630
  C     -814.542     252.413    -896.790
  C     -813.985     252.920    -898.000
  N     -814.600     252.814    -899.200
  N     -815.697     251.714    -896.530
  C     -815.670     251.549    -895.190
  N     -814.533     252.063    -894.640
  O     -817.814     248.404    -890.690
  O     -818.647     249.962    -892.570
  H     -812.011     253.040    -892.150
  H     -818.551     247.884    -891.100
  H     -811.223     254.202    -896.730
  H     -816.442     251.035    -894.650
  H     -813.277     251.362    -893.170
  H     -813.625     254.175    -893.380
  H     -815.956     254.043    -892.640
  H     -814.927     252.076    -890.520
  H     -817.259     252.926    -890.210
  H     -814.181     253.275    -900.000
  H     -815.537     252.408    -899.260
  H     -817.680     252.385    -891.830
  P     -815.933     256.000    -890.960
  C     -816.677     256.270    -888.510
  O     -817.070     255.887    -889.810
  O     -816.773     255.757    -892.340
  O     -815.131     257.255    -890.950
  H     -817.196     254.861    -892.330
  H     -817.537     256.148    -887.850
  H     -816.352     257.325    -888.530
  H     -815.857     255.633    -888.190
  H     -814.613     248.002    -892.523
  H     -816.199     247.315    -892.271
  H     -815.346     248.056    -890.938

 3  4  5  6  7  8  9  10  11  12  22  25  29  30  31  32 0
 6-311+G(2d,p)
 ****
 33  36  37 0
 6-311+G(2d,p)
 ****
 1  2  13  14  15  16  17  18  19  20  21  23  24  26 0
 3-21G
 ****
 27  28  34  35  38  39  40  41  42  43  44  45  46  47  48 0
 3-21G
 ****


