%nproc=1
%NoSave
%Mem=1900MB
#P OB98/GEN NMR

erre ene a

0 1
  C     -212.118    -600.295     -45.797
  O     -213.367    -599.745     -45.434
  H     -211.411    -600.124     -44.981
  H     -211.733    -599.813     -46.699
  H     -212.210    -601.374     -45.957
  P     -214.552    -599.758     -46.518
  C     -214.100    -597.259     -47.041
  O     -214.162    -598.588     -47.545
  C     -215.461    -596.582     -47.157
  O     -215.482    -595.334     -46.430
  C     -215.875    -596.209     -48.580
  O     -216.274    -597.329     -49.362
  C     -217.028    -595.271     -48.277
  O     -218.188    -596.036     -47.891
  C     -216.468    -594.470     -47.082
  N     -215.851    -593.200     -47.480
  C     -216.356    -592.042     -46.871
  O     -217.280    -592.113     -46.053
  N     -215.835    -590.823     -47.242
  C     -214.908    -590.761     -48.140
  N     -214.456    -589.527     -48.503
  C     -214.330    -591.960     -48.788
  C     -214.846    -593.137     -48.415
  O     -215.945    -599.702     -45.974
  O     -214.268    -601.067     -47.399
  H     -218.865    -595.398     -47.609
  H     -214.988    -601.129     -48.079
  H     -213.563    -591.855     -49.541
  H     -214.482    -594.058     -48.862
  H     -217.253    -594.266     -46.342
  H     -217.319    -594.652     -49.138
  H     -215.085    -595.649     -49.087
  H     -216.201    -597.242     -46.684
  H     -214.909    -588.727     -48.068
  H     -213.336    -596.712     -47.613
  H     -213.953    -589.383     -49.373
  H     -213.807    -597.269     -45.985
  P     -215.742    -597.416     -50.877
  C     -218.163    -597.722     -51.786
  O     -216.964    -596.970     -51.826
  O     -215.622    -598.990     -51.118
  O     -214.457    -596.693     -51.158
  H     -214.722    -599.313     -50.935
  H     -218.871    -597.301     -52.469
  H     -218.566    -597.699     -50.795
  H     -217.958    -598.735     -52.064

 6  7  8  9  10  11  12  13  14  15  16  26  30  31  32  33  35 0
 6-311+G(2d,p)
 ****
 37  38 0
 6-311+G(2d,p)
 ****
 1  2  3  4  5  17  18  19  20  21  22  23  24  25 0
 3-21G
 ****
 27  28  29  34  36  39  40  41  42  43  44  45  46 0
 3-21G
 ****


