%nproc=1
%NoSave
%Mem=1900MB
#P OB98/GEN NMR

erre ene a

0 1
  C      150.342     101.981     528.707
  O      151.069     101.023     529.441
  H      150.014     101.526     527.765
  H      150.958     102.854     528.476
  H      149.448     102.293     529.268
  P      151.719     101.463     530.844
  C      149.697     100.583     532.198
  O      150.507     101.709     531.864
  C      148.649     100.980     533.235
  O      147.748     101.954     532.615
  C      147.806      99.782     533.710
  O      147.769      99.641     535.130
  C      146.468      99.983     532.995
  O      145.350      99.411     533.644
  C      146.383     101.505     532.820
  N      145.542     101.944     531.709
  C      144.159     101.795     531.867
  O      143.608     101.361     532.871
  N      143.420     102.193     530.790
  C      143.879     102.703     529.607
  O      143.150     103.051     528.695
  C      145.342     102.801     529.504
  C      146.095     102.432     530.534
  O      152.719     102.568     530.772
  O      152.379     100.111     531.402
  H      145.392      99.700     534.590
  H      153.351     100.141     531.258
  H      142.404     102.115     530.906
  H      145.745     103.195     528.576
  H      147.182     102.489     530.488
  H      146.023     101.987     533.734
  H      146.546      99.519     531.994
  H      148.245      98.835     533.375
  H      149.146     101.476     534.083
  H      150.355      99.802     532.600
  H      149.201     100.204     531.294
  P      148.486      98.473     535.955
  C      150.386      99.980     536.977
  O      150.029      98.872     536.150
  O      148.205      97.081     535.482
  O      147.875      98.626     537.431
  H      147.830      97.720     537.811
  H      151.450     100.091     536.985
  H      150.038      99.808     537.974
  H      149.937     100.872     536.592

 6  7  8  9  10  11  12  13  14  15  16  26  31  32  33  34  35 0
 6-311+G(2d,p)
 ****
 36  37 0
 6-311+G(2d,p)
 ****
 1  2  3  4  5  17  18  19  20  21  22  23  24  25 0
 3-21G
 ****
 27  28  29  30  38  39  40  41  42  43  44  45 0
 3-21G
 ****


