%nproc=1
%NoSave
%Mem=1900MB
#P OB98/GEN NMR

erre ene a

0 1
  C      107.280     -72.890    -593.334
  O      107.893     -73.810    -594.239
  P      106.900     -74.807    -595.029
  C      107.811     -77.060    -594.099
  O      106.727     -76.134    -594.145
  C      107.400     -78.396    -593.472
  O      107.146     -78.194    -592.056
  C      106.147     -79.030    -594.079
  O      106.314     -80.454    -594.102
  C      105.072     -78.724    -593.047
  O      103.971     -79.629    -593.128
  C      105.884     -78.823    -591.750
  N      105.285     -78.885    -586.723
  C      106.118     -79.651    -587.533
  N      106.883     -80.567    -586.903
  N      106.189     -79.507    -588.829
  C      105.396     -78.532    -589.315
  C      104.534     -77.711    -588.619
  C      104.426     -77.899    -587.186
  O      103.666     -77.287    -586.430
  N      103.886     -76.833    -589.469
  C      104.360     -77.141    -590.664
  N      105.259     -78.168    -590.625
  O      107.772     -75.273    -596.283
  O      105.626     -74.152    -595.461
  H      103.374     -79.417    -592.375
  H      107.307     -75.077    -597.119
  H      105.255     -79.047    -585.727
  H      104.052     -76.660    -591.594
  H      106.077     -79.870    -591.481
  H      104.683     -77.709    -593.206
  H      106.932     -80.673    -585.901
  H      105.880     -78.670    -595.075
  H      107.542     -81.102    -587.458
  H      108.250     -79.090    -593.554
  H      108.634     -76.623    -593.519
  H      108.174     -77.216    -595.123
  P      105.565     -81.241    -595.298
  C      104.485     -83.135    -593.858
  O      104.293     -81.946    -594.621
  O      106.565     -82.445    -595.617
  O      105.290     -80.390    -596.506
  H      106.455     -82.731    -596.547
  H      105.556     -83.327    -593.664
  H      104.086     -83.976    -594.424
  H      103.962     -83.032    -592.915
  H      108.034     -72.287    -592.874
  H      106.748     -73.432    -592.581
  H      106.599     -72.262    -593.870

 3  4  5  6  7  8  9  10  11  12  23  26  30  31  33  0
 6-311+G(2d,p)
 ****
 35  36  37  38 0
 6-311+G(2d,p)
 ****
 1  2  13  14  15  16  17  18  19  20  21  22  24  25  27  28  29 0
 3-21G
 ****
 32  34  39  40  41  42  43  44  45  46  47  48  49 0
 3-21G
 ****


