%nproc=1
%NoSave
%Mem=1900MB
#P OB98/GEN NMR

erre ene a

0 1
  C     -141.536       2.754     177.101
  O     -140.993       1.874     178.066
  H     -141.301       2.371     176.105
  H     -141.101       3.751     177.209
  H     -142.623       2.809     177.215
  P     -141.133       2.322     179.604
  C     -140.162       4.353     180.923
  O     -140.200       3.627     179.702
  C     -138.715       4.550     181.368
  O     -138.111       3.281     181.710
  C     -137.801       5.158     180.305
  O     -137.967       6.558     180.155
  C     -136.446       4.805     180.895
  O     -136.165       5.676     182.008
  C     -136.699       3.358     181.365
  N     -136.363       2.356     180.345
  C     -135.018       1.983     180.252
  O     -134.172       2.481     180.992
  N     -134.652       1.072     179.287
  C     -135.549       0.562     178.501
  N     -135.123      -0.332     177.566
  C     -136.978       0.917     178.573
  C     -137.312       1.807     179.508
  O     -140.280       1.219     180.391
  O     -142.525       2.504     180.110
  H     -136.246       6.588     181.674
  H     -140.177       1.486     181.338
  H     -137.686       0.475     177.886
  H     -138.345       2.118     179.619
  H     -136.126       3.133     182.275
  H     -135.624       4.918     180.187
  H     -137.911       4.646     179.339
  H     -138.728       5.164     182.279
  H     -134.131      -0.510     177.500
  H     -140.715       3.784     181.679
  H     -135.715      -0.668     176.815
  H     -140.636       5.331     180.795
  P     -137.799       7.165     178.676
  C     -135.941       7.025     176.853
  O     -136.281       6.898     178.232
  O     -137.843       8.743     178.922
  O     -138.842       6.721     177.693
  H     -138.271       9.202     178.177
  H     -134.900       6.817     176.722
  H     -136.149       8.022     176.525
  H     -136.519       6.332     176.278

 6  7  8  9  10  11  12  13  14  15  16  26  30  31  32  33  35 0
 6-311+G(2d,p)
 ****
 37  38 0
 6-311+G(2d,p)
 ****
 1  2  3  4  5  17  18  19  20  21  22  23  24  25 0
 3-21G
 ****
 27  28  29  34  36  39  40  41  42  43  44  45  46 0
 3-21G
 ****


