%nproc=1
%NoSave
%Mem=1900MB
#P OB98/GEN NMR

erre ene a

0 1
  C      252.008     291.002     -23.470
  O      250.747     291.575     -23.754
  H      251.891     289.914     -23.386
  H      252.381     291.384     -22.518
  H      252.727     291.216     -24.266
  P      250.675     293.106     -24.207
  C      248.683     293.868     -22.739
  O      250.090     293.916     -22.944
  C      248.278     294.834     -21.628
  O      248.873     294.376     -20.377
  C      248.755     296.281     -21.874
  O      247.782     297.181     -21.337
  C      250.026     296.330     -21.039
  O      250.409     297.646     -20.734
  C      249.608     295.491     -19.830
  N      250.759     295.072     -19.042
  C      251.462     296.072     -18.378
  O      251.167     297.262     -18.423
  N      252.580     295.664     -17.694
  C      253.113     294.407     -17.710
  O      254.162     294.120     -17.140
  C      252.352     293.400     -18.476
  C      251.232     293.773     -19.091
  O      249.966     293.381     -25.498
  O      252.201     293.590     -24.234
  H      251.292     297.646     -20.321
  H      252.295     294.383     -24.797
  H      253.097     296.377     -17.193
  H      252.756     292.398     -18.515
  H      250.662     293.061     -19.680
  H      248.914     296.053     -19.181
  H      250.852     295.856     -21.575
  H      248.931     296.503     -22.927
  H      247.191     294.798     -21.501
  H      248.418     292.839     -22.457
  H      248.170     294.121     -23.675
  P      246.676     297.899     -22.273
  C      248.227     299.931     -22.532
  O      247.365     299.019     -23.198
  O      245.476     298.376     -21.529
  O      246.260     296.759     -23.318
  H      245.286     296.745     -23.401
  H      248.626     300.626     -23.240
  H      249.028     299.392     -22.070
  H      247.676     300.461     -21.784

 6  7  8  9  10  11  12  13  14  15  16  26  31  32  33  34  35 0
 6-311+G(2d,p)
 ****
 36  37 0
 6-311+G(2d,p)
 ****
 1  2  3  4  5  17  18  19  20  21  22  23  24  25 0
 3-21G
 ****
 27  28  29  30  38  39  40  41  42  43  44  45 0
 3-21G
 ****


