%nproc=1
%NoSave
%Mem=1900MB
#P OB98/GEN NMR

erre ene a

0 1
  C     -396.283    -989.706      57.143
  O     -395.006    -989.534      56.548
  P     -394.956    -988.933      55.055
  C     -395.580    -989.823      52.693
  O     -395.475    -990.096      54.083
  C     -395.248    -991.073      51.884
  O     -396.183    -992.134      52.169
  C     -395.325    -990.870      50.370
  O     -394.155    -990.268      49.848
  C     -395.436    -992.312      49.894
  O     -394.132    -992.926      49.883
  C     -396.322    -992.942      50.975
  N     -399.841    -995.763      48.674
  C     -398.558    -996.096      49.059
  N     -398.131    -997.333      48.730
  N     -397.756    -995.284      49.716
  C     -398.313    -994.072      49.960
  C     -399.577    -993.625      49.636
  C     -400.441    -994.530      48.901
  O     -401.568    -994.269      48.489
  N     -399.782    -992.343      50.067
  C     -398.652    -992.010      50.664
  N     -397.717    -993.009      50.585
  O     -393.385    -988.858      54.745
  O     -395.626    -987.608      54.889
  H     -393.760    -992.803      50.776
  H     -393.228    -988.274      53.986
  H     -400.405    -996.416      48.168
  H     -398.460    -991.057      51.136
  H     -395.990    -993.956      51.232
  H     -395.830    -992.389      48.877
  H     -398.671    -997.972      48.173
  H     -396.228    -990.319      50.092
  H     -397.173    -997.583      48.945
  H     -394.245    -991.413      52.174
  H     -394.888    -989.024      52.439
  H     -396.600    -989.486      52.474
  P     -394.351    -989.255      48.618
  C     -395.092    -989.554      46.146
  O     -394.791    -990.169      47.381
  O     -392.856    -988.811      48.266
  O     -395.235    -988.085      48.922
  H     -392.849    -987.934      47.840
  H     -395.104    -990.316      45.363
  H     -394.337    -988.803      45.889
  H     -396.077    -989.077      46.193
  H     -396.167    -990.110      58.127
  H     -396.866    -990.378      56.548
  H     -396.779    -988.760      57.202

 3  4  5  6  7  8  9  10  11  12  23  26  30  31 0
 6-311+G(2d,p)
 ****
 33  35  36  37  38 0
 6-311+G(2d,p)
 ****
 1  2  13  14  15  16  17  18  19  20  21  22  24  25 0
 3-21G
 ****
 27  28  29  32  34  39  40  41  42  43  44  45  46  47  48  49 0
 3-21G
 ****


