%nproc=1
%NoSave
%Mem=1900MB
#P OB98/GEN NMR

erre ene a

0 1
  C       -7.561      69.864      82.373
  O       -7.575      68.692      81.583
  H       -6.677      70.463      82.142
  H       -8.453      70.453      82.147
  H       -7.567      69.605      83.435
  P       -6.323      67.701      81.736
  C       -4.185      67.347      80.311
  O       -5.156      68.270      80.785
  C       -3.712      67.760      78.919
  O       -4.847      67.708      78.017
  C       -3.104      69.171      78.840
  O       -1.767      69.107      78.335
  C       -3.969      69.900      77.824
  O       -3.220      70.736      76.944
  C       -4.662      68.768      77.072
  N       -6.854      71.316      73.241
  C       -5.647      70.719      73.340
  N       -5.163      69.964      74.348
  C       -6.083      69.829      75.321
  C       -7.361      70.358      75.351
  C       -7.736      71.151      74.254
  N       -8.946      71.806      74.177
  N       -8.009      70.008      76.522
  C       -7.118      69.318      77.207
  N       -5.935      69.201      76.528
  O       -6.810      66.376      80.979
  O       -5.909      67.415      83.141
  H       -2.586      70.157      76.480
  H       -6.629      65.596      81.536
  H       -4.974      70.873      72.501
  H       -7.260      68.923      78.205
  H       -4.048      68.385      76.247
  H       -4.696      70.526      78.359
  H       -3.111      69.689      79.807
  H       -2.987      67.015      78.568
  H       -4.627      66.346      80.254
  H       -9.085      72.446      73.411
  H       -9.563      71.776      74.977
  H       -3.347      67.319      81.015
  P       -0.597      69.607      79.321
  C        1.217      71.474      79.239
  O        0.008      70.956      78.698
  O        0.563      68.534      79.071
  O       -1.001      69.675      80.754
  H        1.128      68.461      79.865
  H        1.486      72.370      78.719
  H        1.997      70.750      79.128
  H        1.078      71.692      80.277

 6  7  8  9  10  11  12  13  14  15  25  28  32  33  34  35 0
 6-311+G(2d,p)
 ****
 36  39  40 0
 6-311+G(2d,p)
 ****
 1  2  3  4  5  16  17  18  19  20  21  22  23  24 0
 3-21G
 ****
 26  27  29  30  31  37  38  41  42  43  44  45  46  47  48 0
 3-21G
 ****


