%nproc=1
%NoSave
%Mem=1900MB
#P OB98/GEN NMR

erre ene a

0 1
  C       57.736     -55.923       3.220
  O       58.049     -57.085       2.464
  P       59.457     -57.803       2.753
  C       61.922     -56.992       2.637
  O       60.577     -56.783       2.223
  C       62.891     -56.328       1.664
  O       62.794     -54.894       1.766
  C       64.356     -56.658       1.908
  O       64.727     -57.905       1.344
  C       65.035     -55.518       1.166
  O       65.046     -55.793      -0.247
  C       64.103     -54.340       1.469
  N       67.631     -50.997       3.054
  C       67.496     -51.683       1.899
  N       66.534     -52.564       1.557
  C       65.668     -52.739       2.569
  C       65.700     -52.138       3.816
  C       66.735     -51.217       4.045
  N       66.854     -50.497       5.212
  N       64.645     -52.570       4.590
  C       63.982     -53.408       3.823
  N       64.554     -53.536       2.588
  O       59.489     -58.981       1.670
  O       59.634     -58.309       4.143
  H       65.688     -55.178      -0.650
  H       60.091     -59.691       1.968
  H       68.257     -51.492       1.147
  H       63.082     -53.933       4.113
  H       63.985     -53.671       0.610
  H       66.076     -55.372       1.471
  H       64.605     -56.601       2.975
  H       62.597     -56.615       0.646
  H       62.124     -58.067       2.665
  H       67.506     -49.730       5.228
  H       66.076     -50.515       5.863
  H       62.052     -56.585       3.645
  P       65.993     -58.647       1.996
  C       68.387     -57.846       2.607
  O       67.204     -57.606       1.871
  O       66.341     -59.780       0.923
  O       65.738     -59.208       3.355
  H       66.801     -60.526       1.352
  H       69.194     -57.243       2.181
  H       68.677     -58.899       2.560
  H       68.241     -57.551       3.650
  H       56.776     -55.553       2.925
  H       58.477     -55.172       3.043
  H       57.719     -56.169       4.261

 3  4  5  6  7  8  9  10  11  12  22  25  29  30  31  32 0
 6-311+G(2d,p)
 ****
 33  36  37 0
 6-311+G(2d,p)
 ****
 1  2  13  14  15  16  17  18  19  20  21  23  24  26 0
 3-21G
 ****
 27  28  34  35  38  39  40  41  42  43  44  45  46  47  48 0
 3-21G
 ****


