%nproc=1
%NoSave
%Mem=1900MB
#P OB98/GEN NMR

erre ene a

0 1
  C      480.576     542.325     253.732
  O      480.875     541.602     254.925
  P      482.409     541.247     255.248
  C      484.123     542.147     256.953
  O      483.029     542.469     256.098
  C      484.830     543.417     257.428
  O      485.337     544.193     256.321
  C      483.905     544.364     258.195
  O      483.656     543.869     259.493
  C      484.706     545.663     258.129
  O      485.717     545.693     259.145
  C      485.356     545.575     256.734
  N      484.724     546.444     255.755
  C      485.563     547.333     255.066
  O      486.770     547.366     255.327
  N      485.007     548.147     254.104
  C      483.732     548.099     253.866
  N      483.243     548.931     252.907
  C      482.804     547.190     254.582
  C      483.356     546.416     255.504
  O      483.224     540.792     254.088
  O      482.280     540.089     256.356
  H      486.099     546.588     259.139
  H      483.059     539.501     256.283
  H      481.742     547.184     254.341
  H      482.746     545.722     256.083
  H      486.414     545.873     256.789
  H      484.071     546.533     258.292
  H      482.965     544.483     257.651
  H      485.677     543.118     258.061
  H      483.897     549.548     252.446
  H      484.839     541.508     256.409
  H      482.283     548.925     252.617
  H      483.755     541.559     257.800
  P      482.201     543.263     259.790
  C      480.682     541.833     258.242
  O      481.984     542.030     258.796
  O      481.209     544.390     259.211
  O      481.913     542.981     261.233
  H      480.409     544.419     259.747
  H      480.780     541.173     257.365
  H      480.236     542.771     257.932
  H      480.057     541.329     258.974
  H      479.519     542.480     253.664
  H      480.910     541.766     252.883
  H      481.075     543.271     253.754

 3  4  5  6  7  8  9  10  11  12  13  23  27  28  29  30  32 0
 6-311+G(2d,p)
 ****
 34  35 0
 6-311+G(2d,p)
 ****
 1  2  14  15  16  17  18  19  20  21  22  24  25  26 0
 3-21G
 ****
 31  33  36  37  38  39  40  41  42  43  44  45  46 0
 3-21G
 ****


