%nproc=1
%NoSave
%Mem=1900MB
#P OB98/GEN NMR

erre ene a

0 1
  C     -275.714     304.626    -273.751
  O     -275.724     304.178    -275.108
  P     -277.008     303.334    -275.578
  C     -276.135     301.568    -277.275
  O     -276.746     302.837    -277.084
  C     -275.632     301.445    -278.717
  O     -276.716     301.509    -279.670
  C     -274.674     302.557    -279.122
  O     -273.392     302.357    -278.549
  C     -274.712     302.428    -280.639
  O     -273.871     301.344    -281.078
  C     -276.186     302.073    -280.896
  N     -277.927     304.805    -284.858
  C     -277.141     303.714    -284.791
  N     -276.717     303.044    -283.694
  C     -277.210     303.607    -282.577
  C     -278.027     304.724    -282.484
  C     -278.391     305.335    -283.699
  N     -279.185     306.458    -283.759
  N     -278.324     305.003    -281.167
  C     -277.671     304.089    -280.474
  N     -276.995     303.218    -281.284
  O     -278.146     304.447    -275.731
  O     -277.402     302.263    -274.615
  H     -274.059     301.203    -282.028
  H     -278.798     304.355    -275.015
  H     -276.798     303.320    -285.743
  H     -277.664     304.021    -279.392
  H     -276.301     301.317    -281.680
  H     -274.373     303.332    -281.157
  H     -275.067     303.532    -278.816
  H     -275.138     300.469    -278.821
  H     -276.845     300.767    -277.066
  H     -279.337     306.885    -284.663
  H     -279.461     306.916    -282.902
  H     -275.310     301.460    -276.561
  P     -272.691     303.615    -277.839
  C     -270.348     302.671    -278.348
  O     -271.275     303.025    -277.340
  O     -273.521     303.735    -276.485
  O     -272.610     304.848    -278.677
  H     -273.650     302.862    -276.058
  H     -269.431     302.320    -277.872
  H     -270.121     303.542    -278.973
  H     -270.758     301.867    -278.963
  H     -274.813     305.172    -273.562
  H     -275.763     303.781    -273.096
  H     -276.558     305.260    -273.579

 3  4  5  6  7  8  9  10  11  12  22  25  29  30  31  32 0
 6-311+G(2d,p)
 ****
 33  36  37 0
 6-311+G(2d,p)
 ****
 1  2  13  14  15  16  17  18  19  20  21  23  24  26 0
 3-21G
 ****
 27  28  34  35  38  39  40  41  42  43  44  45  46  47  48 0
 3-21G
 ****


