%nproc=1
%NoSave
%Mem=1900MB
#P OB98/GEN NMR

erre ene a

0 1
  C      330.631     104.037       7.536
  O      329.999     104.049       6.270
  H      331.325     103.195       7.573
  H      329.884     103.919       8.325
  H      331.190     104.964       7.688
  P      328.965     105.244       6.000
  C      326.839     103.887       6.666
  O      327.712     104.967       6.964
  C      325.385     104.371       6.648
  O      324.526     103.248       6.287
  C      324.892     104.894       8.008
  O      323.896     105.905       7.774
  C      324.226     103.659       8.590
  O      323.383     104.013       9.661
  C      323.545     103.120       7.338
  N      319.782     100.081       8.947
  C      319.881     101.423       8.863
  N      320.919     102.158       8.412
  C      321.918     101.362       7.995
  C      321.962      99.979       8.021
  C      320.826      99.326       8.533
  N      320.729      97.959       8.642
  N      323.173      99.522       7.533
  C      323.843     100.613       7.213
  N      323.122     101.744       7.473
  O      328.399     104.915       4.538
  O      329.530     106.620       6.085
  H      322.897     103.233      10.000
  H      328.927     105.382       3.865
  H      319.015     101.982       9.203
  H      324.843     100.639       6.803
  H      322.665     103.709       7.052
  H      324.968     102.954       8.975
  H      325.693     105.301       8.632
  H      325.266     105.127       5.862
  H      326.968     103.114       7.430
  H      327.097     103.472       5.687
  H      319.890      97.571       9.046
  H      321.513      97.386       8.370
  P      324.298     107.449       7.948
  C      323.580     107.811      10.430
  O      324.636     107.774       9.482
  O      322.887     108.185       7.749
  O      325.291     107.968       6.959
  H      322.994     108.948       7.150
  H      323.977     108.040      11.397
  H      323.094     106.858      10.460
  H      322.873     108.563      10.147

 6  7  8  9  10  11  12  13  14  15  25  28  32  33  34  35 0
 6-311+G(2d,p)
 ****
 36  37  40 0
 6-311+G(2d,p)
 ****
 1  2  3  4  5  16  17  18  19  20  21  22  23  24 0
 3-21G
 ****
 26  27  29  30  31  38  39 41  42  43  44  45  46  47  48 0
 3-21G
 ****


