%nproc=1
%NoSave
%Mem=1900MB
#P OB98/GEN NMR

erre ene a

0 1
  C       98.948       8.378    -113.542
  O       99.846       9.451    -113.840
  P      101.346       9.047    -114.234
  C      102.657       9.327    -112.008
  O      102.349       9.866    -113.287
  C      104.118       9.606    -111.657
  O      105.021       8.947    -112.571
  C      104.483      11.082    -111.725
  O      103.972      11.788    -110.607
  C      106.005      10.998    -111.778
  O      106.544      10.773    -110.464
  C      106.226       9.749    -112.648
  N      109.933      10.488    -116.094
  C      109.971      10.193    -114.777
  N      108.938      10.014    -113.927
  C      107.767      10.158    -114.568
  C      107.571      10.454    -115.906
  C      108.725      10.628    -116.688
  N      108.686      10.944    -118.027
  N      106.224      10.525    -116.197
  C      105.618      10.298    -115.049
  N      106.507      10.059    -114.038
  O      101.545       9.721    -115.671
  O      101.578       7.573    -114.278
  H      106.311       9.859    -110.206
  H      101.559       9.034    -116.363
  H      110.964      10.087    -114.346
  H      104.545      10.297    -114.902
  H      107.053       9.130    -112.282
  H      106.473      11.905    -112.172
  H      104.100      11.525    -112.653
  H      104.304       9.223    -110.646
  H      102.473       8.249    -111.998
  H      109.559      11.128    -118.496
  H      107.793      11.135    -118.459
  H      101.980       9.767    -111.268
  P      102.444      12.270    -110.664
  C      103.383      14.660    -110.592
  O      102.485      13.737    -110.005
  O      101.782      11.387    -109.510
  O      101.804      12.181    -112.007
  H      102.328      11.380    -108.703
  H      103.286      15.618    -110.074
  H      103.143      14.800    -111.650
  H      104.410      14.303    -110.485
  H       97.986       8.776    -113.296
  H       99.325       7.817    -112.712
  H       98.862       7.738    -114.395

 3  4  5  6  7  8  9  10  11  12  22  25  29  30  31  32 0
 6-311+G(2d,p)
 ****
 33  36  37 0
 6-311+G(2d,p)
 ****
 1  2  13  14  15  16  17  18  19  20  21  23  24  26 0
 3-21G
 ****
 27  28  34  35  38  39  40  41  42  43  44  45  46  47  48 0
 3-21G
 ****


