%nproc=1
%NoSave
%Mem=1900MB
#P OB98/GEN NMR

erre ene a

0 1
  C      397.088     419.536    -284.573
  O      397.199     420.758    -283.876
  H      397.398     418.727    -283.911
  H      397.737     419.543    -285.452
  H      396.050     419.365    -284.877
  P      396.764     422.094    -284.659
  C      396.333     423.346    -282.416
  O      397.069     423.295    -283.634
  C      397.029     424.269    -281.415
  O      398.195     423.599    -280.879
  C      397.490     425.598    -282.024
  O      397.194     426.663    -281.117
  C      398.994     425.432    -282.183
  O      399.678     426.680    -282.166
  C      399.329     424.476    -281.031
  N      400.556     423.719    -281.295
  C      401.755     424.429    -281.234
  O      401.756     425.638    -280.986
  N      402.928     423.772    -281.516
  C      402.900     422.526    -281.881
  N      404.095     421.933    -282.167
  C      401.650     421.749    -282.004
  C      400.525     422.399    -281.693
  O      395.167     421.999    -284.666
  O      397.366     422.264    -286.017
  H      400.640     426.502    -282.102
  H      394.767     422.647    -285.295
  H      401.674     420.717    -282.321
  H      399.562     421.910    -281.752
  H      399.455     425.030    -280.093
  H      399.201     424.948    -283.148
  H      397.025     425.810    -282.983
  H      396.351     424.436    -280.568
  H      404.925     422.502    -282.082
  H      396.261     422.335    -282.004
  H      404.185     420.982    -282.485
  H      395.328     423.727    -282.622
  P      396.538     427.977    -281.771
  C      395.133     428.468    -279.648
  O      396.099     428.952    -280.572
  O      395.151     427.449    -282.367
  O      397.401     428.618    -282.817
  H      395.225     427.283    -283.323
  H      394.939     429.218    -278.910
  H      395.506     427.586    -279.171
  H      394.227     428.236    -280.168

 6  7  8  9  10  11  12  13  14  15  16  26  30  31  32  33  35 0
 6-311+G(2d,p)
 ****
 37  38 0
 6-311+G(2d,p)
 ****
 1  2  3  4  5  17  18  19  20  21  22  23  24  25 0
 3-21G
 ****
 27  28  29  34  36  39  40  41  42  43  44  45  46 0
 3-21G
 ****


