%nproc=1
%NoSave
%Mem=1900MB
#P OB98/GEN NMR

erre ene a

0 1
  C     -374.148      -9.423     160.744
  O     -373.894     -10.816     160.941
  P     -374.209     -11.426     162.394
  C     -376.654     -12.315     162.112
  O     -375.270     -12.613     162.151
  C     -377.372     -13.191     161.079
  O     -376.721     -13.055     159.778
  C     -377.403     -14.684     161.430
  O     -378.678     -15.187     160.992
  C     -376.287     -15.261     160.573
  O     -376.451     -16.655     160.354
  C     -376.417     -14.388     159.319
  N     -375.213     -14.411     158.493
  C     -374.964     -15.576     157.774
  O     -375.660     -16.586     157.872
  N     -373.858     -15.557     156.969
  C     -372.946     -14.540     156.879
  O     -371.972     -14.576     156.141
  C     -373.201     -13.380     157.751
  C     -374.303     -13.373     158.503
  O     -375.069     -10.252     163.050
  O     -372.978     -11.810     163.145
  H     -375.661      -9.803     162.418
  H     -375.715     -16.977     159.788
  H     -373.674     -16.381     156.415
  H     -372.471     -12.581     157.751
  H     -374.510     -12.543     159.172
  H     -377.263     -14.723     158.706
  H     -375.320     -15.098     161.062
  H     -377.278     -14.875     162.498
  H     -378.397     -12.814     160.967
  H     -376.803     -11.263     161.840
  H     -377.086     -12.451     163.113
  P     -379.911     -15.127     162.025
  C     -381.442     -13.001     162.137
  O     -380.996     -14.124     161.405
  O     -379.247     -14.257     163.201
  O     -380.408     -16.454     162.498
  H     -378.785     -13.469     162.877
  H     -381.979     -12.332     161.462
  H     -380.600     -12.456     162.572
  H     -382.120     -13.323     162.934
  H     -373.896      -9.153     159.740
  H     -373.554      -8.852     161.427
  H     -375.184      -9.221     160.918

 3  4  5  6  7  8  9  10  11  12  13  24  28  29  30  31  32 0
 6-311+G(2d,p)
 ****
 33  34 0
 6-311+G(2d,p)
 ****
 1  2  14  15  16  17  18  19  20  21  22  23  25  26  27 0
 3-21G
 ****
 35  36  37  38  39  40  41  42  43  44  45 0
 3-21G
 ****


