%nproc=1
%NoSave
%Mem=1900MB
#P OB98/GEN NMR

erre ene a

0 1
  C     -207.065     -88.492     -25.274
  O     -207.188     -88.476     -26.711
  P     -207.088     -87.143     -27.593
  C     -209.422     -86.264     -26.894
  O     -208.022     -86.022     -26.914
  C     -210.205     -84.975     -26.610
  O     -209.537     -83.843     -27.232
  C     -211.614     -84.927     -27.178
  O     -212.520     -85.744     -26.449
  C     -211.916     -83.439     -27.090
  O     -212.387     -83.067     -25.779
  C     -210.531     -82.803     -27.342
  N     -210.443     -82.151     -28.639
  C     -211.198     -80.964     -28.792
  O     -211.950     -80.591     -27.887
  N     -211.086     -80.268     -29.976
  C     -210.374     -80.754     -30.948
  N     -210.289     -80.012     -32.084
  C     -209.672     -82.054     -30.868
  C     -209.756     -82.684     -29.700
  O     -207.360     -87.350     -29.052
  O     -205.591     -86.598     -27.370
  H     -205.319     -86.063     -28.134
  H     -212.653     -82.132     -25.825
  H     -209.136     -82.440     -31.729
  H     -209.270     -83.646     -29.553
  H     -210.299     -82.084     -26.555
  H     -212.692     -83.131     -27.805
  H     -211.597     -85.238     -28.226
  H     -210.213     -84.820     -25.514
  H     -210.763     -79.118     -32.102
  H     -209.633     -86.990     -26.101
  H     -209.731     -80.284     -32.889
  H     -209.727     -86.704     -27.859
  P     -212.782     -87.222     -27.023
  C     -215.201     -86.476     -27.688
  O     -213.988     -87.097     -28.096
  O     -213.466     -87.986     -25.785
  O     -211.574     -87.934     -27.513
  H     -213.140     -88.914     -25.752
  H     -215.676     -86.057     -28.579
  H     -215.020     -85.685     -26.958
  H     -215.867     -87.236     -27.257
  H     -207.167     -89.496     -24.918
  H     -207.831     -87.881     -24.844
  H     -206.105     -88.110     -24.994

 3  4  5  6  7  8  9  10  11  12  13  24  27  28  29  30  32 0
 6-311+G(2d,p)
 ****
 34  35 0
 6-311+G(2d,p)
 ****
 1  2  14  15  16  17  18  19  20  21  22  23  25  26 0
 3-21G
 ****
 31  33  36  37  38  39  40  41  42  43  44  45  46 0
 3-21G
 ****


