%nproc=1
%NoSave
%Mem=1900MB
#P OB98/GEN NMR

erre ene a

0 1
  C       45.888     229.980      70.223
  O       45.504     229.362      69.011
  H       45.952     231.063      70.091
  H       45.132     229.764      70.983
  H       46.851     229.588      70.560
  P       46.490     229.550      67.759
  C       44.609     230.320      66.140
  O       45.582     229.333      66.453
  C       44.003     230.025      64.773
  O       45.022     230.091      63.749
  C       43.381     228.639      64.648
  O       42.077     228.584      65.196
  C       43.351     228.484      63.136
  O       42.258     229.246      62.592
  C       44.691     229.109      62.730
  N       48.236     227.101      59.634
  C       47.285     228.036      59.429
  N       46.376     228.513      60.303
  C       46.516     227.924      61.500
  C       47.433     226.949      61.858
  C       48.333     226.538      60.860
  N       49.295     225.574      61.062
  N       47.247     226.560      63.171
  C       46.255     227.312      63.604
  N       45.772     228.145      62.630
  O       47.398     228.232      67.793
  O       47.301     230.802      67.754
  H       41.439     228.863      62.961
  H       48.224     228.381      67.296
  H       47.247     228.456      58.426
  H       45.854     227.291      64.608
  H       44.635     229.637      61.771
  H       43.211     227.450      62.815
  H       44.031     227.865      65.074
  H       43.262     230.806      64.554
  H       45.089     231.303      66.118
  H       49.761     225.223      60.239
  H       49.274     225.046      61.923
  H       43.833     230.318      66.910
  P       41.814     227.516      66.366
  C       39.347     227.370      65.558
  O       40.239     227.561      66.653
  O       42.450     228.222      67.651
  O       42.392     226.161      66.116
  H       42.729     227.559      68.310
  H       38.337     227.427      65.907
  H       39.520     226.409      65.121
  H       39.515     228.131      64.824

 6  7  8  9  10  11  12  13  14  15  25  28  32  33  34  35 0
 6-311+G(2d,p)
 ****
 36  39  40 0
 6-311+G(2d,p)
 ****
 1  2  3  4  5  16  17  18  19  20  21  22  23  24 0
 3-21G
 ****
 26  27  29  30  31  37  38  41  42  43  44  45  46  47 0
 3-21G
 ****
 48 0
 3-21G
 ****


