%nproc=1
%NoSave
%Mem=1900MB
#P OB98/GEN NMR

erre ene a

0 1
  C       51.770     874.501    -212.054
  O       51.340     875.774    -212.507
  H       52.085     874.550    -211.008
  H       50.931     873.802    -212.148
  H       52.596     874.146    -212.683
  P       52.400     876.972    -212.356
  C       50.876     878.051    -210.550
  O       52.188     877.594    -210.882
  C       50.907     878.783    -209.211
  O       51.228     877.878    -208.153
  C       51.953     879.900    -209.132
  O       51.516     881.098    -209.768
  C       52.037     880.099    -207.614
  O       50.926     880.919    -207.165
  C       51.860     878.658    -207.086
  N       54.737     876.904    -203.224
  C       53.527     877.486    -203.240
  N       52.817     877.943    -204.313
  C       53.490     877.715    -205.445
  C       54.745     877.126    -205.582
  C       55.386     876.710    -204.414
  N       56.643     876.124    -204.379
  N       55.119     877.049    -206.907
  C       54.115     877.590    -207.562
  N       53.111     878.004    -206.726
  O       51.818     878.109    -213.321
  O       53.814     876.614    -212.693
  H       51.093     881.811    -207.478
  H       52.574     878.579    -213.742
  H       53.043     877.607    -202.278
  H       54.061     877.686    -208.643
  H       51.200     878.615    -206.227
  H       52.952     880.579    -207.289
  H       52.928     879.565    -209.503
  H       49.901     879.200    -209.038
  H       50.206     877.203    -210.479
  H       56.950     875.677    -203.544
  H       57.115     875.983    -205.273
  H       50.524     878.722    -211.347
  P       52.659     882.101    -210.318
  C       51.910     884.220    -209.033
  O       52.861     883.178    -209.142
  O       51.874     882.950    -211.444
  O       53.869     881.461    -210.843
  H       52.521     883.298    -212.103
  H       52.170     884.856    -208.213
  H       50.940     883.801    -208.866
  H       51.901     884.791    -209.938

 6  7  8  9  10  11  12  13  14  15  25  28  32  33  34  35 0
 6-311+G(2d,p)
 ****
 36  39  40 0
 6-311+G(2d,p)
 ****
 1  2  3  4  5  16  17  18  19  20  21  22  23  24 0
 3-21G
 ****
 26  27  29  30  31  37  38  41  42  43  44  45  46  47  48 0
 3-21G
 ****


