%nproc=1
%NoSave
%Mem=1900MB
#P OB98/GEN NMR

erre ene a

0 1
  C      152.260    -181.759     -29.277
  O      150.990    -182.332     -29.510
  H      152.452    -181.011     -30.049
  H      153.042    -182.521     -29.323
  H      152.280    -181.266     -28.301
  P      150.516    -183.545     -28.576
  C      151.269    -183.647     -26.104
  O      150.477    -182.981     -27.077
  C      150.928    -183.156     -24.693
  O      151.213    -181.732     -24.607
  C      149.451    -183.346     -24.308
  O      149.397    -183.534     -22.892
  C      148.866    -182.001     -24.693
  O      147.588    -181.815     -24.135
  C      149.987    -181.070     -24.225
  N      149.885    -179.738     -24.800
  C      149.058    -178.834     -24.124
  O      148.458    -179.185     -23.107
  N      148.911    -177.569     -24.632
  C      149.481    -177.252     -25.751
  N      149.283    -175.987     -26.206
  C      150.314    -178.194     -26.528
  C      150.477    -179.407     -25.996
  O      151.268    -184.825     -28.745
  O      148.967    -183.728     -28.935
  H      146.955    -182.484     -24.477
  H      148.850    -184.519     -29.494
  H      150.751    -177.888     -27.466
  H      151.069    -180.167     -26.495
  H      149.991    -180.978     -23.132
  H      148.744    -181.929     -25.779
  H      148.983    -184.190     -24.821
  H      151.592    -183.657     -23.975
  H      148.697    -175.377     -25.646
  H      152.319    -183.431     -26.330
  H      149.658    -175.636     -27.074
  H      151.113    -184.729     -26.165
  P      149.081    -184.953     -22.213
  C      150.218    -187.271     -22.181
  O      150.404    -185.860     -22.235
  O      147.868    -185.634     -22.763
  O      148.878    -184.632     -20.654
  H      148.242    -185.267     -20.277
  H      151.171    -187.757     -22.202
  H      149.637    -187.587     -23.023
  H      149.706    -187.529     -21.278

 6  7  8  9  10  11  12  13  14  15  16  26  30  31  32  33  35 0
 6-311+G(2d,p)
 ****
 37  38 0
 6-311+G(2d,p)
 ****
 1  2  3  4  5  17  18  19  20  21  22  23  24  25 0
 3-21G
 ****
 27  28  29  34  36  39  40  41  42  43  44  45  46 0
 3-21G
 ****


