%nproc=1
%NoSave
%Mem=1900MB
#P OB98/GEN NMR

erre ene a

0 1
  C      165.519    -195.659    -105.984
  O      164.775    -196.436    -105.043
  P      164.033    -195.853    -103.757
  C      161.734    -195.095    -104.785
  O      162.455    -196.003    -103.964
  C      160.265    -195.526    -104.934
  O      160.230    -196.936    -105.322
  C      159.479    -195.403    -103.621
  O      158.166    -194.875    -103.792
  C      159.594    -196.794    -103.021
  O      158.608    -197.071    -102.041
  C      159.576    -197.680    -104.264
  N      159.035    -202.588    -102.963
  C      158.118    -201.559    -102.886
  N      156.902    -201.862    -102.389
  N      158.378    -200.329    -103.256
  C      159.653    -200.144    -103.666
  C      160.657    -201.082    -103.764
  C      160.344    -202.447    -103.403
  O      161.116    -203.405    -103.469
  N      161.822    -200.520    -104.230
  C      161.528    -199.243    -104.386
  N      160.221    -198.968    -104.064
  O      164.524    -194.534    -103.261
  O      164.349    -196.946    -102.611
  H      158.717    -198.000    -101.756
  H      164.395    -196.453    -101.764
  H      158.775    -203.521    -102.685
  H      162.219    -198.483    -104.743
  H      158.560    -197.903    -104.596
  H      160.570    -196.856    -102.519
  H      156.675    -202.753    -101.973
  H      159.959    -194.680    -102.948
  H      156.315    -201.068    -102.131
  H      159.805    -194.940    -105.738
  H      162.228    -195.115    -105.763
  H      161.809    -194.079    -104.396
  P      157.595    -193.451    -103.345
  C      158.861    -192.263    -105.235
  O      157.608    -192.475    -104.613
  O      158.729    -192.826    -102.403
  O      156.290    -193.505    -102.616
  H      158.371    -192.683    -101.506
  H      158.786    -191.394    -105.895
  H      159.131    -193.139    -105.829
  H      159.635    -192.072    -104.485
  H      165.910    -196.300    -106.746
  H      166.327    -195.169    -105.482
  H      164.878    -194.927    -106.428

 3  4  5  6  7  8  9  10  11  12  23  26  30  31 0
 6-311+G(2d,p)
 ****
 33  35  36  37  38 0
 6-311+G(2d,p)
 ****
 1  2  13  14  15  16  17  18  19  20  21  22  24  25 0
 3-21G
 ****
 27  28  29  32  34  39  40  41  42  43  44  45  46  47  48  49 0
 3-21G
 ****


