%nproc=1
%NoSave
%Mem=1900MB
#P OB98/GEN NMR

erre ene a

0 1
  C      272.890    -197.069    -196.978
  O      271.944    -198.072    -197.293
  H      272.364    -196.119    -196.867
  H      273.627    -196.968    -197.782
  H      273.392    -197.300    -196.030
  P      272.485    -199.550    -197.626
  C      273.458    -200.645    -199.766
  O      272.959    -199.459    -199.161
  C      274.503    -200.302    -200.829
  O      273.884    -199.665    -201.976
  C      275.573    -199.316    -200.379
  O      276.534    -199.890    -199.508
  C      276.167    -198.931    -201.730
  O      277.008    -199.996    -202.209
  C      274.880    -198.809    -202.590
  N      274.389    -197.434    -202.690
  C      275.217    -196.513    -203.340
  O      276.307    -196.864    -203.801
  N      274.817    -195.205    -203.423
  C      273.685    -194.834    -202.890
  N      273.361    -193.516    -202.958
  C      272.776    -195.775    -202.209
  C      273.178    -197.046    -202.136
  O      271.559    -200.675    -197.304
  O      273.892    -199.638    -196.861
  H      277.183    -199.811    -203.152
  H      274.261    -200.546    -197.023
  H      271.852    -195.420    -201.770
  H      272.579    -197.793    -201.639
  H      275.051    -199.196    -203.601
  H      276.769    -198.025    -201.694
  H      275.124    -198.424    -199.928
  H      274.937    -201.249    -201.183
  H      274.026    -192.892    -203.389
  H      272.611    -201.189    -200.205
  H      272.658    -193.114    -202.341
  H      273.936    -201.284    -199.013
  P      277.392    -198.914    -198.577
  C      279.896    -198.185    -198.764
  O      278.682    -198.468    -199.440
  O      278.003    -199.892    -197.475
  O      276.649    -197.755    -197.976
  H      277.433    -199.914    -196.672
  H      280.644    -197.907    -199.476
  H      280.218    -199.054    -198.230
  H      279.742    -197.380    -198.076

 6  7  8  9  10  11  12  13  14  15  16  26  30  31  32  33  35 0
 6-311+G(2d,p)
 ****
 37  38 0
 6-311+G(2d,p)
 ****
 1  2  3  4  5  17  18  19  20  21  22  23  24  25 0
 3-21G
 ****
 27  28  29  34  36  39  40  41  42  43  44  45  46 0
 3-21G
 ****


