%nproc=1
%NoSave
%Mem=1900MB
#P OB98/GEN NMR

erre ene a

0 1
  C       39.783      72.548     -85.548
  O       39.551      71.293     -84.948
  H       39.201      73.303     -85.014
  H       39.453      72.523     -86.590
  H       40.840      72.824     -85.504
  P       40.592      70.109     -85.214
  C       41.984      68.468     -83.789
  O       40.901      69.390     -83.812
  C       42.889      68.689     -82.578
  O       43.518      69.985     -82.671
  C       42.117      68.668     -81.256
  O       41.950      67.377     -80.693
  C       42.993      69.545     -80.365
  O       44.012      68.771     -79.710
  C       43.621      70.535     -81.351
  N       44.226      75.576     -80.751
  C       45.143      74.562     -80.544
  N       46.354      74.946     -80.087
  N       44.879      73.300     -80.753
  C       43.597      73.065     -81.113
  C       42.595      73.984     -81.329
  C       42.917      75.386     -81.168
  O       42.146      76.321     -81.354
  N       41.407      73.370     -81.646
  C       41.673      72.084     -81.535
  N       43.005      71.849     -81.293
  O       41.966      70.882     -85.515
  O       40.247      69.189     -86.345
  H       44.581      68.377     -80.399
  H       42.504      70.361     -86.139
  H       44.496      76.531     -80.601
  H       40.953      71.284     -81.664
  H       44.690      70.677     -81.147
  H       42.399      70.014     -79.577
  H       46.583      75.891     -79.828
  H       41.146      69.158     -81.367
  H       46.989      74.223     -79.742
  H       43.692      67.942     -82.585
  H       42.546      68.626     -84.710
  H       41.609      67.441     -83.805
  P       40.981      67.146     -79.444
  C       40.148      64.978     -78.220
  O       40.557      65.608     -79.414
  O       39.637      67.891     -79.887
  O       41.492      67.645     -78.133
  H       39.586      68.778     -79.486
  H       39.910      63.954     -78.420
  H       39.284      65.476     -77.832
  H       40.940      65.026     -77.502

 6  7  8  9  10  11  12  13  14  15  26  29  33  34 0
 6-311+G(2d,p)
 ****
 36  38  39  40  41 0
 6-311+G(2d,p)
 ****
 1  2  3  4  5  16  17  18  19  20  21  22  23  24  25 0
 3-21G
 ****
 27  28  30  31  32  35  37  42  43  44  45  46  47 0
 3-21G
 ****
 48  49 0
 3-21G
 ****


