%nproc=1
%NoSave
%Mem=1900MB
#P OB98/GEN NMR

erre ene a

0 1
  C      -25.209     -20.519     107.023
  O      -24.426     -21.663     107.375
  P      -23.917     -22.586     106.168
  C      -21.973     -20.911     105.768
  O      -22.367     -22.269     105.915
  C      -21.688     -20.602     104.299
  O      -21.448     -19.193     104.086
  C      -20.448     -21.305     103.763
  O      -20.702     -22.680     103.533
  C      -20.180     -20.490     102.502
  O      -21.054     -20.903     101.439
  C      -20.552     -19.068     102.955
  N      -18.382     -14.446     102.633
  C      -19.539     -14.937     102.138
  N      -20.046     -16.181     102.266
  C      -19.231     -16.952     103.003
  C      -18.023     -16.591     103.577
  C      -17.596     -15.269     103.365
  N      -16.409     -14.774     103.856
  N      -17.470     -17.655     104.260
  C      -18.318     -18.647     104.081
  N      -19.404     -18.269     103.338
  O      -24.648     -21.961     104.890
  O      -24.248     -24.033     106.340
  H      -21.970     -20.709     101.724
  H      -25.350     -22.562     104.580
  H      -20.139     -14.238     101.561
  H      -18.190     -19.651     104.467
  H      -21.086     -18.512     102.176
  H      -19.153     -20.588     102.139
  H      -19.615     -21.192     104.467
  H      -22.567     -20.898     103.711
  H      -21.083     -20.707     106.368
  H      -16.140     -13.839     103.593
  H      -15.775     -15.402     104.329
  H      -22.770     -20.270     106.160
  P      -19.670     -23.743     104.147
  C      -20.833     -25.046     106.031
  O      -20.614     -24.949     104.635
  O      -19.263     -23.039     105.522
  O      -18.545     -24.123     103.247
  H      -20.041     -22.690     105.994
  H      -21.513     -25.880     106.220
  H      -21.285     -24.125     106.408
  H      -19.888     -25.237     106.545
  H      -25.485     -19.989     107.911
  H      -26.092     -20.836     106.507
  H      -24.636     -19.876     106.388

 3  4  5  6  7  8  9  10  11  12  22  25  29  30  31  32 0
 6-311+G(2d,p)
 ****
 33  36  37 0
 6-311+G(2d,p)
 ****
 1  2  13  14  15  16  17  18  19  20  21  23  24  26 0
 3-21G
 ****
 27  28  34  35  38  39  40  41  42  43  44  45  46  47  48 0
 3-21G
 ****


