%nproc=1
%NoSave
%Mem=1900MB
#P OB98/GEN NMR

erre ene a

0 1
  C      -95.809     172.441      32.211
  O      -95.476     171.470      31.241
  H      -96.253     173.316      31.730
  H      -96.538     172.013      32.904
  H      -94.920     172.736      32.773
  P      -94.424     171.922      30.116
  C      -93.710     169.486      29.615
  O      -94.273     170.684      29.101
  C      -94.818     168.500      29.975
  O      -95.585     168.222      28.774
  C      -94.310     167.161      30.536
  O      -94.994     166.834      31.752
  C      -94.694     166.145      29.477
  O      -95.047     164.879      30.023
  C      -95.868     166.818      28.779
  N      -97.325     162.781      26.027
  C      -97.589     163.133      27.304
  N      -97.252     164.268      27.947
  C      -96.598     165.105      27.123
  C      -96.277     164.896      25.793
  C      -96.652     163.657      25.246
  N      -96.334     163.275      23.961
  N      -95.595     165.981      25.276
  C      -95.468     166.812      26.290
  N      -96.045     166.320      27.431
  O      -93.029     171.938      30.905
  O      -94.715     173.243      29.490
  H      -95.390     164.333      29.292
  H      -92.668     172.844      30.885
  H      -98.140     162.401      27.890
  H      -94.933     167.754      26.267
  H      -96.808     166.666      29.326
  H      -93.849     166.006      28.793
  H      -93.231     167.163      30.716
  H      -95.499     168.980      30.688
  H      -93.127     169.710      30.515
  H      -96.539     162.328      23.689
  H      -95.737     163.879      23.414
  H      -93.043     169.053      28.863
  P      -94.300     167.337      33.114
  C      -96.373     168.274      34.368
  O      -95.392     167.248      34.290
  O      -94.118     168.908      32.869
  O      -92.995     166.675      33.403
  H      -93.179     169.155      32.976
  H      -97.025     168.082      35.194
  H      -96.941     168.294      33.462
  H      -95.891     169.219      34.507

 6  7  8  9  10  11  12  13  14  15  25  28  32  33  34  35 0
 6-311+G(2d,p)
 ****
 36  39  40 0
 6-311+G(2d,p)
 ****
 1  2  3  4  5  16  17  18  19  20  21  22  23  24 0
 3-21G
 ****
 26  27  29  30  31  37  38  41  42  43  44  45  46  47  48 0
 3-21G
 ****


