%nproc=1
%NoSave
%Mem=1900MB
#P OB98/GEN NMR

erre ene a

0 1
  C     -475.227    -555.696     448.141
  O     -475.029    -556.833     447.322
  H     -474.399    -555.630     448.854
  H     -476.159    -555.799     448.707
  H     -475.251    -554.780     447.543
  P     -475.989    -557.052     446.060
  C     -477.222    -559.049     447.142
  O     -476.407    -558.604     446.061
  C     -476.772    -560.430     447.602
  O     -476.644    -561.318     446.462
  C     -475.406    -560.444     448.294
  O     -475.509    -559.942     449.612
  C     -475.052    -561.918     448.185
  O     -475.717    -562.679     449.202
  C     -475.604    -562.268     446.779
  N     -474.572    -562.274     445.743
  C     -474.334    -563.493     445.105
  O     -474.914    -564.533     445.416
  N     -473.380    -563.479     444.119
  C     -472.605    -562.404     443.769
  O     -471.732    -562.462     442.904
  C     -472.877    -561.151     444.487
  C     -473.833    -561.151     445.421
  O     -475.474    -556.540     444.753
  O     -477.351    -556.315     446.492
  H     -475.464    -563.616     449.059
  H     -477.398    -555.441     446.067
  H     -473.185    -564.348     443.655
  H     -472.277    -560.293     444.238
  H     -474.037    -560.233     445.978
  H     -476.073    -563.260     446.790
  H     -473.977    -562.104     448.306
  H     -474.679    -559.862     447.705
  H     -477.547    -560.842     448.267
  H     -478.265    -559.099     446.796
  H     -477.152    -558.325     447.961
  P     -474.817    -558.555     450.003
  C     -472.973    -559.634     451.422
  O     -474.097    -558.757     451.431
  O     -475.704    -557.351     449.931
  O     -473.590    -558.420     448.986
  H     -473.784    -557.750     448.314
  H     -472.566    -559.703     452.409
  H     -472.228    -559.252     450.755
  H     -473.281    -560.605     451.095

 6  7  8  9  10  11  12  13  14  15  16  26  31  32  33  34  35 0
 6-311+G(2d,p)
 ****
 36  37 0
 6-311+G(2d,p)
 ****
 1  2  3  4  5  17  18  19  20  21  22  23  24  25 0
 3-21G
 ****
 27  28  29  30  38  39  40  41  42  43  44  45 0
 3-21G
 ****


