%nproc=1
%NoSave
%Mem=1900MB
#P OB98/GEN NMR

erre ene a

0 1
  C      172.515      60.171     -23.706
  O      172.683      60.025     -22.310
  H      173.078      59.398     -24.236
  H      171.455      60.060     -23.945
  H      172.847      61.162     -24.027
  P      174.176      60.185     -21.747
  C      173.841      62.592     -20.838
  O      174.499      61.757     -21.778
  C      174.836      63.558     -20.205
  O      175.844      62.826     -19.476
  C      175.599      64.429     -21.197
  O      174.824      65.535     -21.632
  C      176.773      64.874     -20.339
  O      176.361      65.945     -19.469
  C      177.065      63.610     -19.516
  N      182.131      63.096     -19.999
  C      181.376      63.982     -19.316
  N      180.032      64.043     -19.218
  C      179.463      63.042     -19.909
  C      180.099      62.051     -20.636
  C      181.502      62.101     -20.674
  N      182.262      61.226     -21.434
  N      179.177      61.206     -21.222
  C      178.006      61.693     -20.870
  N      178.127      62.796     -20.072
  O      175.069      59.587     -22.937
  O      174.445      59.495     -20.452
  H      177.175      66.389     -19.166
  H      175.292      58.660     -22.735
  H      181.924      64.749     -18.778
  H      177.051      61.284     -21.172
  H      177.331      63.844     -18.480
  H      177.620      65.241     -20.925
  H      175.976      63.842     -22.042
  H      174.291      64.179     -19.482
  H      173.388      61.975     -20.056
  H      183.141      61.625     -21.752
  H      181.732      60.692     -22.111
  H      173.051      63.146     -21.356
  P      175.201      66.202     -23.042
  C      173.300      65.544     -24.669
  O      174.599      65.238     -24.177
  O      176.780      65.962     -23.138
  O      174.865      67.646     -23.175
  H      177.237      66.816     -23.267
  H      173.023      64.828     -25.415
  H      173.303      66.524     -25.099
  H      172.596      65.510     -23.864

 6  7  8  9  10  11  12  13  14  15  25  28  32  33  34  35 0
 6-311+G(2d,p)
 ****
 36  39  40 0
 6-311+G(2d,p)
 ****
 1  2  3  4  5  16  17  18  19  20  21  22  23  24 0
 3-21G
 ****
 26  27  29  30  31  37  38  41  42  43  44  45  46  47  48 0
 3-21G
 ****


