%nproc=1
%NoSave
%Mem=1900MB
#P OB98/GEN NMR

erre ene a

0 1
  C     -368.291    -120.846    -256.096
  O     -368.318    -120.196    -257.366
  P     -368.637    -121.076    -258.664
  C     -367.155    -120.569    -260.722
  O     -368.311    -120.196    -259.971
  C     -366.664    -119.391    -261.577
  O     -367.645    -119.118    -262.614
  C     -366.490    -118.067    -260.816
  O     -365.227    -117.805    -260.203
  C     -366.646    -117.050    -261.939
  O     -365.394    -116.897    -262.639
  C     -367.672    -117.697    -262.868
  N     -371.670    -115.504    -265.199
  C     -370.464    -115.912    -265.661
  N     -369.455    -116.487    -264.976
  C     -369.788    -116.642    -263.682
  C     -370.973    -116.280    -263.071
  C     -371.946    -115.677    -263.885
  N     -373.170    -115.253    -263.413
  N     -370.943    -116.586    -261.727
  C     -369.748    -117.111    -261.529
  N     -369.016    -117.179    -262.683
  O     -369.954    -121.776    -258.678
  O     -367.428    -122.137    -258.665
  H     -364.722    -116.701    -261.958
  H     -367.768    -123.000    -258.970
  H     -370.289    -115.756    -266.726
  H     -369.374    -117.453    -260.575
  H     -367.421    -117.554    -263.929
  H     -366.924    -116.059    -261.573
  H     -367.291    -117.933    -260.075
  H     -365.723    -119.667    -262.067
  H     -367.401    -121.417    -261.372
  H     -373.791    -114.794    -264.054
  H     -373.372    -115.324    -262.426
  H     -366.403    -120.917    -260.017
  P     -365.125    -117.313    -258.682
  C     -363.053    -115.876    -259.390
  O     -363.609    -116.817    -258.498
  O     -365.585    -118.297    -257.664
  O     -365.953    -115.941    -258.703
  H     -365.528    -115.226    -259.214
  H     -362.109    -115.513    -258.970
  H     -363.723    -115.032    -259.531
  H     -362.848    -116.355    -260.351
  H     -368.066    -120.130    -255.334
  H     -367.541    -121.609    -256.102
  H     -369.246    -121.287    -255.901

 3  4  5  6  7  8  9  10  11  12  22  25  29  30  31  32 0
 6-311+G(2d,p)
 ****
 33  36  37 0
 6-311+G(2d,p)
 ****
 1  2  13  14  15  16  17  18  19  20  21  23  24  26 0
 3-21G
 ****
 27  28  34  35  38  39  40  41  42  43  44  45  46  47  48 0
 3-21G
 ****


