%nproc=1
%NoSave
%Mem=1900MB
#P OB98/GEN NMR

erre ene a

0 1
  C      436.815    -126.247      -6.430
  O      437.146    -125.115      -7.210
  H      437.304    -126.157      -5.458
  H      437.174    -127.154      -6.922
  H      435.734    -126.305      -6.280
  P      436.455    -125.002      -8.654
  C      434.383    -123.602      -7.961
  O      435.625    -123.624      -8.653
  C      433.564    -122.379      -8.364
  O      432.219    -122.508      -7.810
  C      434.137    -121.042      -7.872
  O      433.865    -120.046      -8.868
  C      433.280    -120.735      -6.652
  O      433.282    -119.349      -6.316
  C      431.931    -121.271      -7.128
  N      427.424    -119.917      -5.350
  C      428.063    -119.577      -6.526
  N      427.402    -118.746      -7.360
  N      429.250    -120.012      -6.855
  C      429.782    -120.862      -5.945
  C      429.256    -121.272      -4.742
  C      427.951    -120.762      -4.377
  O      427.344    -121.011      -3.340
  N      430.118    -122.119      -4.090
  C      431.160    -122.218      -4.896
  N      431.003    -121.472      -6.031
  O      435.319    -126.127      -8.586
  O      437.366    -125.196      -9.818
  H      434.201    -119.099      -6.082
  H      435.650    -126.966      -8.959
  H      426.515    -119.541      -5.137
  H      432.048    -122.804      -4.702
  H      431.440    -120.595      -7.839
  H      433.643    -121.299      -5.783
  H      426.467    -118.407      -7.194
  H      435.208    -121.063      -7.649
  H      427.834    -118.518      -8.247
  H      433.453    -122.377      -9.456
  H      434.577    -123.564      -6.885
  H      433.828    -124.517      -8.190
  P      435.017    -119.709      -9.928
  C      434.492    -121.434     -11.802
  O      434.471    -120.076     -11.388
  O      436.099    -120.862      -9.657
  O      435.612    -118.349      -9.778
  H      436.988    -120.541      -9.896
  H      434.097    -121.511     -12.793
  H      433.896    -122.020     -11.134
  H      435.499    -121.795     -11.790

 6  7  8  9  10  11  12  13  14  15  26  29  33  34 0
 6-311+G(2d,p)
 ****
 36  38  39  40  41 0
 6-311+G(2d,p)
 ****
 1  2  3  4  5  16  17  18  19  20  21  22  23  24  25 0
 3-21G
 ****
 27  28  30  31  32  35  37  42  43  44  45  46  47 0
 3-21G
 ****
 48  49 0
 3-21G
 ****


