%nproc=1
%NoSave
%Mem=1900MB
#P OB98/GEN NMR

erre ene a

0 1
  C       -4.789     -63.156      86.294
  O       -5.096     -63.190      84.897
  P       -6.314     -62.270      84.398
  C       -8.112     -64.137      84.344
  O       -7.685     -62.915      84.933
  C       -9.570     -64.053      83.874
  O      -10.456     -63.740      84.987
  C       -9.811     -62.988      82.800
  O      -10.842     -63.469      81.930
  C      -10.354     -61.816      83.597
  O      -11.054     -60.894      82.764
  C      -11.204     -62.557      84.627
  N      -13.995     -58.681      86.431
  C      -13.941     -59.267      85.218
  N      -13.151     -60.288      84.809
  C      -12.386     -60.724      85.824
  C      -12.324     -60.219      87.116
  C      -13.177     -59.144      87.409
  N      -13.214     -58.527      88.639
  N      -11.379     -60.902      87.860
  C      -10.880     -61.797      87.029
  N      -11.478     -61.747      85.798
  O       -6.358     -62.545      82.821
  O       -6.135     -60.817      84.693
  H      -11.432     -60.192      83.338
  H       -6.031     -61.763      82.339
  H      -14.620     -58.865      84.471
  H      -10.089     -62.492      87.261
  H      -12.172     -62.877      84.218
  H       -9.528     -61.281      84.084
  H       -8.926     -62.722      82.215
  H       -9.865     -65.037      83.488
  H       -8.015     -64.953      85.066
  H      -13.833     -57.743      88.762
  H      -12.577     -58.831      89.361
  H       -7.441     -64.388      83.514
  P      -10.416     -63.765      80.412
  C      -11.204     -61.484      79.460
  O      -10.116     -62.339      79.746
  O      -11.786     -64.229      79.719
  O       -9.340     -64.793      80.267
  H      -11.596     -64.799      78.950
  H      -10.922     -60.457      79.709
  H      -12.100     -61.748      80.029
  H      -11.432     -61.540      78.392
  H       -3.964     -63.808      86.494
  H       -5.642     -63.478      86.855
  H       -4.531     -62.157      86.578

 3  4  5  6  7  8  9  10  11  12  22  25  29  30  31  32 0
 6-311+G(2d,p)
 ****
 33  36  37 0
 6-311+G(2d,p)
 ****
 1  2  13  14  15  16  17  18  19  20  21  23  24  26 0
 3-21G
 ****
 27  28  34  35  38  39  40  41  42  43  44  45  46  47  48 0
 3-21G
 ****


