%nproc=1
%NoSave
%Mem=1900MB
#P OB98/GEN NMR

erre ene a

0 1
  C      291.534     -66.931     120.058
  O      291.221     -67.515     118.790
  P      289.857     -67.040     118.096
  C      290.436     -64.588     117.454
  O      290.216     -65.920     117.005
  C      289.268     -63.694     117.039
  O      289.304     -62.420     117.719
  C      289.264     -63.356     115.553
  O      288.828     -64.463     114.781
  C      288.322     -62.158     115.535
  O      286.952     -62.594     115.591
  C      288.689     -61.442     116.845
  N      289.046     -56.505     115.543
  C      287.989     -57.339     115.639
  N      287.977     -58.642     115.990
  C      289.219     -59.071     116.272
  C      290.392     -58.336     116.224
  C      290.276     -56.990     115.834
  N      291.356     -56.143     115.723
  N      291.471     -59.117     116.579
  C      290.960     -60.309     116.814
  N      289.601     -60.327     116.654
  O      289.118     -66.219     119.254
  O      289.014     -68.166     117.593
  H      286.801     -63.180     114.822
  H      288.353     -66.726     119.585
  H      287.022     -56.904     115.400
  H      291.531     -61.185     117.101
  H      287.808     -61.049     117.366
  H      288.432     -61.538     114.640
  H      290.268     -63.050     115.233
  H      288.334     -64.206     117.308
  H      291.369     -64.200     117.037
  H      291.198     -55.216     115.361
  H      292.286     -56.517     115.852
  H      290.559     -64.600     118.542
  P      289.872     -65.110     113.750
  C      291.226     -66.926     114.963
  O      290.029     -66.624     114.270
  O      291.243     -64.437     114.214
  O      289.518     -64.953     112.312
  H      291.346     -64.454     115.183
  H      291.188     -67.969     115.288
  H      291.329     -66.284     115.841
  H      292.086     -66.794     114.300
  H      292.462     -67.327     120.414
  H      290.757     -67.160     120.757
  H      291.617     -65.870     119.951

 3  4  5  6  7  8  9  10  11  12  22  25  29  30  31  32 0
 6-311+G(2d,p)
 ****
 33  36  37 0
 6-311+G(2d,p)
 ****
 1  2  13  14  15  16  17  18  19  20  21  23  24  26 0
 3-21G
 ****
 27  28  34  35  38  39  40  41  42  43  44  45  46  47  48 0
 3-21G
 ****


