%nproc=1
%NoSave
%Mem=1900MB
#P OB98/GEN NMR

erre ene a

0 1
  C      -95.282    -146.951     -28.441
  O      -95.104    -146.170     -27.280
  P      -95.932    -144.820     -27.050
  C      -97.697    -146.070     -25.650
  O      -97.459    -145.252     -26.791
  C      -98.942    -145.585     -24.898
  O      -99.240    -146.534     -23.828
  C      -98.751    -144.195     -24.259
  O      -99.765    -143.247     -24.592
  C      -98.621    -144.522     -22.780
  O      -98.900    -143.431     -21.924
  C      -99.527    -145.751     -22.653
  N      -99.293    -146.494     -21.417
  C      -99.905    -146.014     -20.264
  O     -100.629    -145.023     -20.222
  N      -99.610    -146.681     -19.108
  C      -98.697    -147.683     -18.972
  O      -98.410    -148.170     -17.887
  C      -98.053    -148.122     -20.219
  C      -98.389    -147.536     -21.370
  O      -95.761    -143.777     -28.102
  O      -95.467    -144.354     -25.590
  H      -98.403    -142.658     -22.251
  H      -95.649    -144.993     -24.879
  H     -100.046    -146.343     -18.264
  H      -97.316    -148.908     -20.141
  H      -97.931    -147.838     -22.306
  H     -100.581    -145.476     -22.696
  H      -97.581    -144.815     -22.593
  H      -97.824    -143.725     -24.610
  H      -99.778    -145.583     -25.603
  H      -96.832    -146.009     -24.987
  H      -97.803    -147.116     -25.959
  P      -99.519    -141.684     -24.832
  C      -99.921    -141.841     -27.396
  O      -99.047    -141.480     -26.346
  O      -98.668    -141.010     -23.808
  O     -100.998    -141.070     -24.828
  H     -100.967    -140.147     -24.511
  H      -99.323    -142.122     -28.267
  H     -100.541    -140.981     -27.660
  H     -100.559    -142.683     -27.117
  H      -94.638    -147.805     -28.399
  H      -95.042    -146.366     -29.304
  H      -96.300    -147.275     -28.501

 3  4  5  6  7  8  9  10  11  12  13  23  28  29  30  31  32 0
 6-311+G(2d,p)
 ****
 33  34 0
 6-311+G(2d,p)
 ****
 1  2  14  15  16  17  18  19  20  21  22  24  25  26  27 0
 3-21G
 ****
 35  36  37  38  39  40  41  42  43  44  45 0
 3-21G
 ****


