%nproc=1
%NoSave
%Mem=1900MB
#P OB98/GEN NMR

erre ene a

0 1
  C     -899.200    1010.563      14.768
  O     -898.300    1010.818      13.697
  H     -899.640    1011.511      15.094
  H     -898.660    1010.115      15.609
  H     -900.000    1009.899      14.439
  P     -897.480    1009.566      13.137
  C     -895.110    1010.397      13.874
  O     -896.150    1009.439      14.041
  C     -893.880    1009.945      14.628
  O     -894.080    1010.132      16.063
  C     -893.540    1008.466      14.468
  O     -892.890    1008.192      13.239
  C     -892.630    1008.233      15.662
  O     -891.280    1008.602      15.384
  C     -893.260    1009.147      16.737
  N     -894.030    1008.394      17.721
  C     -893.330    1007.355      18.360
  O     -892.150    1007.103      18.136
  N     -894.040    1006.614      19.248
  C     -895.370    1006.758      19.527
  O     -895.980    1006.015      20.286
  C     -896.070    1007.846      18.800
  C     -895.370    1008.592      17.944
  O     -896.910    1010.102      11.735
  O     -898.250    1008.306      12.983
  H     -897.410    1009.681      11.002
  H     -890.760    1008.379      16.189
  H     -893.560    1005.867      19.721
  H     -897.130    1007.980      18.990
  H     -895.860    1009.391      17.391
  H     -892.480    1009.707      17.264
  H     -892.640    1007.178      15.951
  H     -894.440    1007.860      14.572
  H     -893.020    1010.579      14.333
  H     -895.440    1011.365      14.263
  H     -894.900    1010.487      12.797
  P     -892.560    1006.649      12.883
  C     -889.990    1007.284      12.873
  O     -891.030    1006.438      13.359
  O     -892.480    1006.712      11.298
  O     -893.550    1005.696      13.462
  H     -892.240    1007.599      10.980
  H     -889.057    1006.985      13.303
  H     -890.199    1008.298      13.144
  H     -889.934    1007.204      11.807

 6  7  8  9  10  11  12  13  14  15  16  27  31  32  33  34  35 0
 6-311+G(2d,p)
 ****
 36  37 0
 6-311+G(2d,p)
 ****
 1  2  3  4  5  17  18  19  20  21  22  23  24  25 0
 3-21G
 ****
 26  28  29  30  38  39  40  41  42  43  44  45 0
 3-21G
 ****


