%nproc=1
%NoSave
%Mem=1900MB
#P OB98/GEN NMR

erre ene a

0 1
  C      467.172    -252.519    -236.905
  O      467.971    -251.737    -236.032
  P      467.245    -251.008    -234.799
  C      467.830    -252.464    -232.744
  O      466.871    -252.160    -233.747
  C      467.203    -252.427    -231.360
  O      466.764    -251.068    -231.074
  C      465.985    -253.350    -231.191
  O      466.067    -254.021    -229.927
  C      464.816    -252.379    -231.117
  O      463.706    -252.929    -230.410
  C      465.484    -251.188    -230.430
  N      461.243    -248.818    -229.039
  C      461.797    -249.989    -228.563
  N      461.087    -250.647    -227.617
  N      462.937    -250.472    -228.973
  C      463.559    -249.694    -229.896
  C      463.115    -248.510    -230.434
  C      461.820    -248.014    -230.013
  O      461.236    -247.029    -230.470
  N      464.028    -248.002    -231.328
  C      465.010    -248.876    -231.333
  N      464.752    -249.945    -230.513
  O      465.830    -250.589    -235.426
  O      467.961    -249.826    -234.246
  H      464.022    -253.160    -229.517
  H      465.700    -249.625    -235.324
  H      460.355    -248.499    -228.701
  H      465.908    -248.792    -231.928
  H      465.655    -251.408    -229.364
  H      464.489    -252.130    -232.130
  H      460.217    -250.318    -227.232
  H      465.862    -254.080    -231.993
  H      461.485    -251.500    -227.240
  H      467.975    -252.671    -230.617
  H      468.644    -251.730    -232.793
  H      468.250    -253.458    -232.946
  P      466.141    -255.627    -229.987
  C      468.673    -255.631    -230.607
  O      467.349    -255.970    -230.976
  O      464.839    -256.023    -230.822
  O      466.187    -256.278    -228.643
  H      464.561    -256.937    -230.607
  H      468.733    -255.293    -229.564
  H      469.031    -254.829    -231.255
  H      469.313    -256.506    -230.732
  H      467.788    -252.939    -237.672
  H      466.420    -251.901    -237.350
  H      466.705    -253.307    -236.351

 3  4  5  6  7  8  9  10  11  12  23  26  30  31  33  0
 6-311+G(2d,p)
 ****
 35  36  37  38 0
 6-311+G(2d,p)
 ****
 1  2  13  14  15  16  17  18  19  20  21  22  24  25  27  28  29 0
 3-21G
 ****
 32  34  39  40  41  42  43  44  45  46  47  48  49 0
 3-21G
 ****


