%nproc=1
%NoSave
%Mem=1900MB
#P OB98/GEN NMR

erre ene a

0 1
  C     -180.574    -274.042    -329.223
  O     -180.021    -274.351    -327.960
  H     -180.423    -272.977    -329.419
  H     -181.644    -274.258    -329.230
  H     -180.070    -274.620    -330.004
  P     -180.183    -275.865    -327.449
  C     -177.761    -276.702    -327.024
  O     -178.949    -276.153    -326.466
  C     -176.625    -276.598    -326.010
  O     -176.304    -275.212    -325.772
  C     -176.956    -277.181    -324.641
  O     -176.865    -278.595    -324.624
  C     -175.901    -276.510    -323.780
  O     -174.650    -277.221    -323.829
  C     -175.772    -275.116    -324.435
  N     -176.431    -274.080    -323.650
  C     -175.747    -273.646    -322.516
  O     -174.648    -274.097    -322.184
  N     -176.378    -272.699    -321.763
  C     -177.617    -272.184    -321.996
  O     -178.160    -271.390    -321.237
  C     -178.292    -272.667    -323.213
  C     -177.683    -273.583    -323.968
  O     -179.845    -276.728    -328.757
  O     -181.524    -276.201    -326.885
  H     -180.667    -277.063    -329.152
  H     -174.815    -278.096    -323.432
  H     -175.902    -272.383    -320.934
  H     -179.277    -272.271    -323.429
  H     -178.169    -273.971    -324.857
  H     -174.715    -274.839    -324.538
  H     -176.198    -276.472    -322.732
  H     -177.946    -276.841    -324.314
  H     -175.736    -277.087    -326.432
  H     -177.491    -276.142    -327.923
  H     -177.947    -277.748    -327.299
  P     -177.609    -279.392    -323.450
  C     -177.798    -281.407    -325.134
  O     -177.510    -280.956    -323.824
  O     -179.136    -279.024    -323.734
  O     -177.122    -279.049    -322.079
  H     -179.335    -278.944    -324.681
  H     -177.676    -282.469    -325.180
  H     -177.129    -280.941    -325.827
  H     -178.806    -281.152    -325.385

 6  7  8  9  10  11  12  13  14  15  16  27  31  32  33  34  35 0
 6-311+G(2d,p)
 ****
 36  37 0
 6-311+G(2d,p)
 ****
 1  2  3  4  5  17  18  19  20  21  22  23  24  25 0
 3-21G
 ****
 26  28  29  30  38  39  40  41  42  43  44  45 0
 3-21G
 ****


