%nproc=1
%NoSave
%Mem=1900MB
#P OB98/GEN NMR

erre ene a

0 1
  C      823.508    -903.223    -787.852
  O      823.182    -901.872    -788.207
  P      823.817    -900.710    -787.296
  C      821.807    -900.110    -785.686
  O      823.064    -900.754    -785.871
  C      821.423    -900.080    -784.203
  O      822.404    -899.296    -783.468
  C      820.077    -899.433    -783.898
  O      819.623    -899.874    -782.583
  C      820.420    -897.966    -783.848
  O      819.424    -897.196    -783.182
  C      821.797    -897.993    -783.162
  N      822.734    -896.924    -783.638
  C      822.374    -895.591    -783.464
  O      821.341    -895.250    -782.889
  N      823.234    -894.642    -783.947
  C      824.421    -894.903    -784.577
  O      825.104    -894.018    -785.109
  C      824.831    -896.333    -784.658
  C      823.967    -897.243    -784.195
  O      823.260    -899.376    -787.991
  O      825.303    -900.740    -787.224
  H      819.817    -896.298    -783.075
  H      823.968    -898.924    -788.479
  H      822.962    -893.686    -783.876
  H      825.800    -896.541    -785.082
  H      824.270    -898.301    -784.256
  H      821.734    -897.894    -782.067
  H      820.512    -897.568    -784.874
  H      819.282    -899.643    -784.640
  H      821.442    -901.129    -783.794
  H      821.065    -900.596    -786.293
  H      821.893    -899.065    -786.054
  P      818.213    -900.634    -782.473
  C      816.796    -898.585    -781.817
  O      817.074    -899.533    -782.838
  O      817.978    -901.410    -781.238
  O      818.199    -901.559    -783.791
  H      817.578    -902.300    -783.685
  H      816.447    -897.670    -782.287
  H      817.638    -898.379    -781.184
  H      815.955    -898.995    -781.202
  H      823.027    -903.896    -788.530
  H      823.173    -903.421    -786.855
  H      824.568    -903.360    -787.905

 3  4  5  6  7  8  9  10  11  12  13  23  28  29  30  31  32 0
 6-311+G(2d,p)
 ****
 33  34 0
 6-311+G(2d,p)
 ****
 1  2  14  15  16  17  18  19  20  21  22  24  25  26  27 0
 3-21G
 ****
 35  36  37  38  39  40  41  42  43  44  45 0
 3-21G
 ****


