%nproc=1
%NoSave
%Mem=1900MB
#P OB98/GEN NMR

erre ene a

0 1
  C      152.470    -568.837     207.888
  O      151.895    -570.064     208.298
  H      153.217    -568.533     208.629
  H      151.710    -568.052     207.827
  H      152.962    -568.953     206.921
  P      150.658    -570.640     207.458
  C      152.099    -572.277     206.069
  O      151.275    -571.118     206.060
  C      151.475    -573.369     205.203
  O      151.243    -572.876     203.869
  C      152.368    -574.594     205.050
  O      152.353    -575.382     206.220
  C      151.761    -575.235     203.813
  O      150.583    -575.977     204.139
  C      151.417    -573.991     202.961
  N      152.435    -573.693     201.954
  C      152.628    -574.672     200.976
  O      151.961    -575.708     200.983
  N      153.593    -574.459     200.019
  C      154.288    -573.362     200.034
  N      155.224    -573.212     199.062
  C      154.100    -572.305     201.044
  C      153.169    -572.534     201.966
  O      149.455    -569.753     207.335
  O      150.312    -572.020     208.194
  H      150.888    -576.762     204.632
  H      149.662    -571.874     208.905
  H      154.699    -571.402     201.012
  H      152.972    -571.803     202.741
  H      150.457    -574.132     202.447
  H      152.460    -575.916     203.333
  H      153.392    -574.285     204.802
  H      150.505    -573.642     205.637
  H      155.326    -573.972     198.397
  H      152.176    -572.616     207.110
  H      155.762    -572.372     198.926
  H      153.106    -572.040     205.706
  P      153.619    -575.408     207.204
  C      152.011    -574.546     209.031
  O      153.263    -574.362     208.373
  O      154.942    -575.207     206.550
  O      153.477    -576.821     207.939
  H      153.734    -577.568     207.343
  H      151.889    -573.794     209.783
  H      151.986    -575.514     209.487
  H      151.218    -574.468     208.317

 6  7  8  9  10  11  12  13  14  15  16  26  30  31  32  33  35 0
 6-311+G(2d,p)
 ****
 37  38 0
 6-311+G(2d,p)
 ****
 1  2  3  4  5  17  18  19  20  21  22  23  24  25 0
 3-21G
 ****
 27  28  29  34  36  39  40  41  42  43  44  45  46 0
 3-21G
 ****


