%nproc=1
%NoSave
%Mem=1900MB
#P OB98/GEN NMR

erre ene a

0 1
  C        9.399    -161.947     -38.691
  O        9.353    -163.151     -39.429
  H       10.429    -161.581     -38.681
  H        9.084    -162.126     -37.660
  H        8.762    -161.185     -39.147
  P        7.926    -163.794     -39.771
  C        7.582    -164.864     -37.450
  O        7.767    -165.090     -38.841
  C        7.756    -166.172     -36.683
  O        7.878    -165.907     -35.269
  C        6.583    -167.135     -36.824
  O        6.604    -167.776     -38.085
  C        6.825    -168.052     -35.634
  O        7.834    -169.027     -35.936
  C        7.329    -167.047     -34.570
  N        6.288    -166.633     -33.630
  C        5.601    -167.652     -32.978
  O        5.810    -168.844     -33.191
  N        4.647    -167.249     -32.082
  C        4.265    -165.960     -31.843
  O        3.364    -165.656     -31.067
  C        5.001    -164.928     -32.587
  C        5.963    -165.305     -33.430
  O        7.645    -164.022     -41.219
  O        6.885    -162.761     -39.126
  H        8.158    -169.368     -35.080
  H        6.521    -162.183     -39.822
  H        4.130    -167.973     -31.608
  H        4.721    -163.895     -32.427
  H        6.513    -164.558     -33.992
  H        8.152    -167.487     -33.994
  H        5.932    -168.603     -35.339
  H        5.636    -166.604     -36.671
  H        8.689    -166.643     -37.019
  H        6.570    -164.476     -37.288
  H        8.308    -164.117     -37.113
  P        5.288    -167.846     -38.991
  C        3.769    -169.297     -37.526
  O        4.572    -169.253     -38.698
  O        5.493    -167.540     -40.438
  O        4.296    -166.787     -38.314
  H        4.239    -165.985     -38.868
  H        3.340    -170.272     -37.424
  H        2.988    -168.570     -37.602
  H        4.375    -169.082     -36.670

 6  7  8  9  10  11  12  13  14  15  16  26  31  32  33  34  35 0
 6-311+G(2d,p)
 ****
 36  37 0
 6-311+G(2d,p)
 ****
 1  2  3  4  5  17  18  19  20  21  22  23  24  25 0
 3-21G
 ****
 27  28  29  30  38  39  40  41  42  43  44  45 0
 3-21G
 ****


