%nproc=1
%NoSave
%Mem=1900MB
#P OB98/GEN NMR

erre ene a

0 1
  C        6.979     176.292    -732.228
  O        7.782     175.353    -732.907
  H        6.316     176.775    -732.950
  H        7.607     177.062    -731.770
  H        6.371     175.810    -731.462
  P        8.711     174.362    -732.054
  C       10.862     175.386    -733.046
  O       10.124     175.102    -731.865
  C       12.362     175.410    -732.738
  O       13.121     175.573    -733.950
  C       12.792     176.549    -731.815
  O       12.429     176.282    -730.468
  C       14.292     176.574    -732.090
  O       14.970     175.558    -731.339
  C       14.334     176.282    -733.608
  N       14.491     177.485    -734.425
  C       15.795     177.905    -734.675
  O       16.781     177.339    -734.206
  N       15.928     179.016    -735.454
  C       14.904     179.783    -735.948
  O       15.074     180.801    -736.606
  C       13.546     179.316    -735.631
  C       13.392     178.206    -734.902
  O        8.799     172.951    -732.545
  O        8.076     174.430    -730.580
  H       14.811     175.741    -730.395
  H        7.516     173.650    -730.432
  H       16.862     179.350    -735.643
  H       12.705     179.889    -736.000
  H       12.418     177.844    -734.648
  H       15.173     175.603    -733.842
  H       14.753     177.524    -731.804
  H       12.352     177.495    -732.156
  H       12.625     174.435    -732.294
  H       10.563     176.369    -733.425
  H       10.635     174.630    -733.801
  P       11.652     177.379    -729.596
  C       13.742     178.814    -729.191
  O       12.438     178.776    -729.755
  O       11.364     176.975    -728.184
  O       10.285     177.621    -730.415
  H        9.548     177.190    -729.945
  H       14.172     179.781    -729.351
  H       14.354     178.070    -729.657
  H       13.682     178.620    -728.140

 6  7  8  9  10  11  12  13  14  15  16  26  31  32  33  34  35 0
 6-311+G(2d,p)
 ****
 36  37 0
 6-311+G(2d,p)
 ****
 1  2  3  4  5  17  18  19  20  21  22  23  24  25 0
 3-21G
 ****
 27  28  29  30  38  39  40  41  42  43  44  45 0
 3-21G
 ****


