%nproc=1
%NoSave
%Mem=1900MB
#P OB98/GEN NMR

erre ene a

0 1
  C      -11.290     -25.757      15.389
  O      -11.115     -26.650      16.474
  P      -12.416     -27.182      17.245
  C      -12.187     -25.520      19.266
  O      -12.189     -26.856      18.799
  C      -12.133     -25.491      20.796
  O      -11.805     -24.143      21.231
  C      -13.444     -25.889      21.486
  O      -13.096     -26.589      22.687
  C      -14.073     -24.547      21.814
  O      -15.026     -24.630      22.861
  C      -12.827     -23.724      22.156
  N      -13.041     -22.280      22.066
  C      -13.767     -21.665      23.080
  O      -14.257     -22.266      24.034
  N      -13.943     -20.312      22.948
  C      -13.533     -19.544      21.897
  O      -13.734     -18.339      21.823
  C      -12.814     -20.257      20.832
  C      -12.596     -21.566      20.969
  O      -12.210     -28.764      17.145
  O      -13.698     -26.676      16.680
  H      -11.277     -29.030      17.202
  H      -14.591     -25.035      23.634
  H      -14.435     -19.838      23.691
  H      -12.485     -19.686      19.974
  H      -12.068     -22.113      20.197
  H      -12.474     -23.980      23.162
  H      -14.579     -24.156      20.924
  H      -14.073     -26.523      20.855
  H      -11.315     -26.145      21.124
  H      -13.098     -25.017      18.933
  H      -11.332     -24.987      18.836
  P      -13.565     -28.122      22.836
  C      -15.952     -27.558      23.747
  O      -14.700     -28.168      23.962
  O      -12.288     -28.735      23.591
  O      -13.864     -28.815      21.548
  H      -12.007     -28.202      24.351
  H      -16.674     -27.976      24.453
  H      -16.315     -27.738      22.731
  H      -15.872     -26.482      23.921
  H      -10.335     -25.497      14.984
  H      -11.785     -24.872      15.731
  H      -11.883     -26.227      14.632

 3  4  5  6  7  8  9  10  11  12  13  24  28  29  30  31  32 0
 6-311+G(2d,p)
 ****
 33  34 0
 6-311+G(2d,p)
 ****
 1  2  14  15  16  17  18  19  20  21  22  23  25  26  27 0
 3-21G
 ****
 35  36  37  38  39  40  41  42  43  44  45 0
 3-21G
 ****


