%nproc=1
%NoSave
%Mem=1900MB
#P OB98/GEN NMR

erre ene a

0 1
  C      228.819     404.688     380.162
  O      228.981     404.495     378.772
  H      228.482     403.749     380.609
  H      228.071     405.459     380.362
  H      229.774     404.967     380.619
  P      229.360     405.759     377.865
  C      231.761     404.873     377.493
  O      230.951     405.938     377.970
  C      233.074     405.414     376.905
  O      232.795     406.026     375.613
  C      233.755     406.480     377.777
  O      235.169     406.383     377.552
  C      233.204     407.757     377.174
  O      233.932     408.882     377.595
  C      233.239     407.397     375.685
  N      232.423     408.287     374.875
  C      233.101     409.068     373.936
  O      234.326     408.991     373.834
  N      232.381     409.936     373.156
  C      231.104     410.063     373.345
  N      230.450     410.953     372.552
  C      230.356     409.300     374.369
  C      231.072     408.433     375.088
  O      228.573     407.001     378.118
  O      229.155     405.233     376.365
  H      234.054     408.880     378.569
  H      228.332     405.605     375.996
  H      229.298     409.457     374.500
  H      230.612     407.832     375.867
  H      234.269     407.427     375.304
  H      232.167     407.919     377.496
  H      233.535     406.364     378.841
  H      233.751     404.568     376.714
  H      231.003     411.461     371.870
  H      231.193     404.346     376.719
  H      229.465     411.151     372.622
  H      231.987     404.174     378.305
  P      236.258     406.858     378.625
  C      237.769     404.768     378.678
  O      236.843     405.582     379.395
  O      235.780     407.950     379.531
  O      237.501     407.372     377.756
  H      237.959     408.085     378.239
  H      238.083     403.954     379.298
  H      238.620     405.355     378.401
  H      237.299     404.384     377.797

 6  7  8  9  10  11  12  13  14  15  16  26  30  31  32  33  35 0
 6-311+G(2d,p)
 ****
 37  38 0
 6-311+G(2d,p)
 ****
 1  2  3  4  5  17  18  19  20  21  22  23  24  25 0
 3-21G
 ****
 27  28  29  34  36  39  40  41  42  43  44  45  46 0
 3-21G
 ****


