%nproc=1
%NoSave
%Mem=1900MB
#P OB98/GEN NMR

erre ene a

0 1
  C      479.264     391.013    -336.974
  O      478.433     390.265    -336.108
  P      478.588     388.674    -335.973
  C      478.573     388.612    -333.402
  O      479.346     388.427    -334.577
  C      479.307     388.103    -332.166
  O      479.589     386.683    -332.314
  C      480.641     388.805    -331.873
  O      480.780     388.841    -330.451
  C      481.653     387.854    -332.487
  O      482.967     388.053    -331.982
  C      481.013     386.502    -332.152
  N      481.532     385.428    -332.992
  C      482.802     384.941    -332.674
  O      483.462     385.470    -331.777
  N      483.324     383.911    -333.418
  C      482.673     383.476    -334.452
  N      483.231     382.450    -335.146
  C      481.385     384.050    -334.897
  C      480.870     385.002    -334.120
  O      479.197     387.993    -337.149
  O      477.100     388.180    -335.647
  H      482.951     387.908    -331.010
  H      476.551     388.175    -336.472
  H      480.905     383.692    -335.794
  H      479.933     385.479    -334.363
  H      481.190     386.239    -331.101
  H      481.688     388.002    -333.572
  H      480.707     389.813    -332.296
  H      478.640     388.211    -331.299
  H      484.104     382.078    -334.799
  H      477.643     388.050    -333.512
  H      482.770     381.987    -335.912
  H      478.312     389.674    -333.290
  P      481.446     390.102    -329.711
  C      479.176     391.248    -329.476
  O      480.495     391.354    -329.975
  O      482.891     390.326    -330.025
  O      481.227     389.798    -328.150
  H      481.818     390.372    -327.623
  H      478.720     392.244    -329.461
  H      479.170     390.841    -328.461
  H      478.585     390.600    -330.131
  H      478.999     392.048    -336.916
  H      479.135     390.667    -337.978
  H      480.286     390.889    -336.682

 3  4  5  6  7  8  9  10  11  12  13  23  27  28  29  30  32 0
 6-311+G(2d,p)
 ****
 34  35 0
 6-311+G(2d,p)
 ****
 1  2  14  15  16  17  18  19  20  21  22  24  25  26 0
 3-21G
 ****
 31  33  36  37  38  39  40  41  42  43  44  45  46 0
 3-21G
 ****


