%nproc=1
%NoSave
%Mem=1900MB
#P OB98/GEN NMR

erre ene a

0 1
  C      571.866    -256.593    -129.346
  O      573.145    -257.176    -129.507
  H      571.145    -257.176    -129.920
  H      571.861    -255.564    -129.718
  H      571.568    -256.615    -128.289
  P      574.409    -256.431    -128.853
  C      575.320    -254.009    -129.031
  O      574.247    -254.897    -129.314
  C      575.390    -252.906    -130.087
  O      575.732    -253.451    -131.388
  C      574.081    -252.161    -130.321
  O      573.758    -251.251    -129.281
  C      574.407    -251.454    -131.631
  O      575.275    -250.335    -131.373
  C      575.158    -252.580    -132.391
  N      574.294    -253.329    -133.297
  C      574.118    -252.811    -134.583
  O      574.678    -251.764    -134.921
  N      573.285    -253.461    -135.456
  C      572.658    -254.539    -135.076
  N      571.807    -255.116    -135.966
  C      572.826    -255.133    -133.737
  C      573.639    -254.486    -132.899
  O      575.745    -257.043    -129.119
  O      574.048    -256.336    -127.292
  H      574.751    -249.685    -130.870
  H      574.813    -255.894    -126.838
  H      572.275    -256.021    -133.462
  H      573.802    -254.849    -131.893
  H      575.995    -252.163    -132.968
  H      573.525    -251.075    -132.145
  H      573.258    -252.859    -130.495
  H      576.205    -252.226    -129.801
  H      571.682    -254.662    -136.856
  H      576.250    -254.594    -129.007
  H      571.091    -255.772    -135.658
  H      575.175    -253.536    -128.051
  P      572.223    -250.867    -129.063
  C      570.619    -249.055    -130.051
  O      571.933    -249.582    -129.999
  O      572.202    -250.260    -127.587
  O      571.229    -251.978    -129.245
  H      571.964    -250.949    -126.927
  H      570.598    -248.213    -130.711
  H      570.319    -248.747    -129.071
  H      569.947    -249.807    -130.410

 6  7  8  9  10  11  12  13  14  15  16  26  30  31  32  33  35 0
 6-311+G(2d,p)
 ****
 37  38 0
 6-311+G(2d,p)
 ****
 1  2  3  4  5  17  18  19  20  21  22  23  24  25 0
 3-21G
 ****
 27  28  29  34  36  39  40  41  42  43  44  45  46 0
 3-21G
 ****


