%nproc=1
%NoSave
%Mem=1900MB
#P OB98/GEN NMR

erre ene a

0 1
  C      371.583    -171.165    -407.055
  O      371.316    -171.887    -408.239
  H      371.799    -170.125    -407.316
  H      372.452    -171.584    -406.540
  H      370.713    -171.190    -406.394
  P      371.076    -173.463    -408.089
  C      372.629    -175.352    -407.207
  O      372.520    -174.143    -407.948
  C      374.061    -175.868    -407.278
  O      374.986    -174.782    -407.018
  C      374.393    -176.932    -406.242
  O      373.916    -178.215    -406.606
  C      375.912    -176.861    -406.230
  O      376.488    -177.654    -407.275
  C      376.179    -175.361    -406.455
  N      376.585    -174.694    -405.221
  C      377.935    -174.805    -404.893
  O      378.750    -175.417    -405.581
  N      378.311    -174.218    -403.716
  C      377.482    -173.589    -402.834
  O      377.876    -173.132    -401.767
  C      376.064    -173.515    -403.226
  C      375.687    -174.067    -404.383
  O      370.590    -173.899    -409.550
  O      370.095    -173.854    -407.033
  H      369.634    -174.084    -409.538
  H      376.234    -178.579    -407.082
  H      379.285    -174.285    -403.460
  H      375.379    -173.026    -402.546
  H      374.642    -174.036    -404.684
  H      376.977    -175.222    -407.195
  H      376.310    -177.230    -405.289
  H      374.015    -176.632    -405.258
  H      374.250    -176.246    -408.294
  H      371.960    -176.104    -407.634
  H      372.331    -175.161    -406.172
  P      373.757    -179.309    -405.443
  C      375.512    -180.550    -403.926
  O      375.242    -179.802    -405.103
  O      373.105    -180.520    -406.266
  O      372.951    -178.826    -404.284
  H      373.356    -180.492    -407.204
  H      376.556    -180.781    -403.882
  H      374.946    -181.458    -403.943
  H      375.238    -179.974    -403.067

 6  7  8  9  10  11  12  13  14  15  16  27  31  32  33  34  35 0
 6-311+G(2d,p)
 ****
 36  37 0
 6-311+G(2d,p)
 ****
 1  2  3  4  5  17  18  19  20  21  22  23  24  25 0
 3-21G
 ****
 26  28  29  30  38  39  40  41  42  43  44  45 0
 3-21G
 ****


