%nproc=1
%NoSave
%Mem=1900MB
#P OB98/GEN NMR

erre ene a

0 1
  C     -237.557    -426.680    -222.110
  O     -237.517    -427.260    -223.422
  P     -236.251    -426.943    -224.349
  C     -237.846    -426.322    -226.309
  O     -236.712    -427.059    -225.879
  C     -238.745    -427.193    -227.189
  O     -239.413    -428.219    -226.418
  C     -239.850    -426.417    -227.892
  O     -239.381    -425.797    -229.081
  C     -240.819    -427.540    -228.242
  O     -240.367    -428.227    -229.421
  C     -240.717    -428.447    -227.010
  N     -245.592    -429.159    -225.859
  C     -244.868    -429.583    -226.955
  N     -245.536    -430.309    -227.873
  N     -243.598    -429.316    -227.131
  C     -243.054    -428.599    -226.124
  C     -243.672    -428.120    -224.989
  C     -245.075    -428.405    -224.809
  O     -245.776    -428.045    -223.868
  N     -242.792    -427.424    -224.200
  C     -241.640    -427.500    -224.841
  N     -241.754    -428.186    -226.025
  O     -235.333    -428.241    -224.156
  O     -235.522    -425.688    -223.985
  H     -239.607    -428.782    -229.151
  H     -234.395    -428.004    -224.289
  H     -246.572    -429.383    -225.776
  H     -240.711    -427.071    -224.492
  H     -240.781    -429.512    -227.272
  H     -241.825    -427.165    -228.460
  H     -246.502    -430.590    -227.777
  H     -240.329    -425.703    -227.213
  H     -245.010    -430.657    -228.669
  H     -238.112    -427.684    -227.943
  H     -237.538    -425.431    -226.860
  H     -238.382    -425.950    -225.428
  P     -239.846    -424.290    -229.378
  C     -239.797    -424.184    -231.968
  O     -239.152    -423.870    -230.752
  O     -239.055    -423.455    -228.263
  O     -241.320    -424.066    -229.293
  H     -239.575    -422.671    -228.001
  H     -239.272    -423.688    -232.784
  H     -240.837    -423.839    -231.958
  H     -239.772    -425.264    -232.138
  H     -238.457    -426.980    -221.615
  H     -237.533    -425.613    -222.191
  H     -236.711    -427.014    -221.546

 3  4  5  6  7  8  9  10  11  12  23  26  30  31 0
 6-311+G(2d,p)
 ****
 33  35  36  37  38 0
 6-311+G(2d,p)
 ****
 1  2  13  14  15  16  17  18  19  20  21  22  24  25 0
 3-21G
 ****
 27  28  29  32  34  39  40  41  42  43  44  45  46  47  48  49 0
 3-21G
 ****


