%nproc=1
%NoSave
%Mem=1900MB
#P OB98/GEN NMR

erre ene a

0 1
  C     -683.664     -35.287    -167.784
  O     -682.900     -36.204    -168.546
  H     -683.098     -34.364    -167.622
  H     -684.582     -35.051    -168.334
  H     -683.940     -35.734    -166.822
  P     -681.522     -36.702    -167.894
  C     -681.853     -38.978    -169.101
  O     -680.987     -37.890    -168.830
  C     -681.460     -39.661    -170.404
  O     -681.844     -38.845    -171.530
  C     -679.957     -39.900    -170.573
  O     -679.524     -41.047    -169.859
  C     -679.870     -40.112    -172.079
  O     -680.280     -41.452    -172.406
  C     -680.905     -39.104    -172.608
  N     -679.918     -36.040    -176.598
  C     -680.595     -37.210    -176.490
  N     -680.832     -37.950    -175.395
  C     -680.311     -37.370    -174.305
  C     -679.613     -36.168    -174.239
  C     -679.427     -35.491    -175.455
  N     -678.660     -34.324    -175.555
  N     -679.213     -35.903    -172.945
  C     -679.640     -36.935    -172.247
  N     -680.309     -37.840    -173.020
  O     -682.015     -37.461    -166.562
  O     -680.536     -35.624    -167.583
  H     -679.571     -42.043    -172.089
  H     -681.939     -36.855    -165.802
  H     -680.998     -37.598    -177.428
  H     -679.484     -37.062    -171.180
  H     -681.479     -39.495    -173.451
  H     -678.856     -39.976    -172.473
  H     -679.378     -38.997    -170.303
  H     -682.013     -40.612    -170.480
  H     -682.888     -38.616    -169.180
  H     -678.221     -34.216    -176.455
  H     -678.104     -34.117    -174.727
  H     -681.793     -39.687    -168.267
  P     -678.516     -40.823    -168.632
  C     -678.774     -43.253    -167.749
  O     -677.889     -42.258    -168.282
  O     -679.508     -40.536    -167.400
  O     -677.532     -39.712    -168.797
  H     -679.276     -39.670    -166.981
  H     -678.227     -44.154    -167.563
  H     -679.556     -43.449    -168.453
  H     -679.199     -42.898    -166.833

 6  7  8  9  10  11  12  13  14  15  25  28  32  33  34  35 0
 6-311+G(2d,p)
 ****
 36  39  40 0
 6-311+G(2d,p)
 ****
 1  2  3  4  5  16  17  18  19  20  21  22  23  24 0
 3-21G
 ****
 26  27  29  30  31  37  38  41  42  43  44  45  46  47  48 0
 3-21G
 ****


