%nproc=1
%NoSave
%Mem=1900MB
#P OB98/GEN NMR

erre ene a

0 1
  C      411.372     295.558     427.397
  O      411.519     294.436     426.527
  P      411.008     293.004     427.032
  C      408.761     292.831     425.763
  O      410.098     292.350     425.881
  C      407.880     291.813     425.026
  O      406.488     292.170     425.222
  C      408.085     291.765     423.508
  O      409.078     290.884     422.984
  C      406.733     291.224     423.038
  O      406.723     289.787     423.150
  C      405.744     291.825     424.035
  N      402.733     293.605     420.298
  C      403.239     292.372     420.541
  N      404.038     291.985     421.562
  C      404.289     293.011     422.384
  C      403.843     294.319     422.262
  C      403.032     294.608     421.156
  N      402.526     295.859     420.897
  N      404.322     295.095     423.301
  C      405.061     294.274     424.025
  N      405.061     293.002     423.521
  O      410.428     292.964     428.408
  O      412.340     292.114     426.954
  H      405.826     289.495     422.901
  H      412.351     291.496     427.713
  H      402.972     291.601     419.823
  H      405.606     294.557     424.911
  H      404.966     291.111     424.328
  H      406.531     291.458     421.988
  H      408.241     292.775     423.098
  H      408.046     290.820     425.453
  H      408.768     293.783     425.222
  H      401.987     295.994     420.055
  H      402.783     296.634     421.496
  H      408.401     293.043     426.773
  P      410.174     291.391     421.930
  C      411.889     292.425     423.601
  O      411.569     291.381     422.713
  O      409.846     292.674     421.251
  O      410.306     290.138     420.941
  H      410.714     289.355     421.342
  H      412.768     292.126     424.191
  H      411.059     292.622     424.287
  H      412.133     293.331     423.041
  H      411.758     296.434     426.918
  H      411.912     295.380     428.303
  H      410.336     295.702     427.622

 3  4  5  6  7  8  9  10  11  12  22  25  29  30  31  32 0
 6-311+G(2d,p)
 ****
 33  36  37 0
 6-311+G(2d,p)
 ****
 1  2  13  14  15  16  17  18  19  20  21  23  24  26 0
 3-21G
 ****
 27  28  34  35  38  39  40  41  42  43  44  45  46  47  48 0
 3-21G
 ****


