%nproc=1
%NoSave
%Mem=1900MB
#P OB98/GEN NMR

erre ene a

0 1
  C       90.862     -20.531     -70.778
  O       91.237     -21.897     -70.784
  P       90.285     -22.919     -71.574
  C       89.298     -24.084     -69.468
  O       89.063     -23.232     -70.586
  C       88.077     -24.110     -68.555
  O       87.825     -22.795     -68.029
  C       86.793     -24.526     -69.251
  O       86.756     -25.928     -69.433
  C       85.741     -24.001     -68.282
  O       85.471     -24.956     -67.243
  C       86.418     -22.735     -67.705
  N       85.811     -21.507     -68.190
  C       84.580     -21.168     -67.617
  O       84.068     -21.904     -66.772
  N       83.946     -20.028     -68.045
  C       84.492     -19.297     -68.966
  N       83.822     -18.176     -69.348
  C       85.778     -19.630     -69.610
  C       86.375     -20.741     -69.182
  O       91.127     -24.278     -71.570
  O       89.911     -22.485     -72.953
  H       86.346     -25.213     -66.887
  H       90.884     -24.839     -72.331
  H       86.190     -18.987     -70.373
  H       87.322     -21.061     -69.601
  H       86.354     -22.736     -66.609
  H       84.790     -23.799     -68.782
  H       86.694     -24.014     -70.216
  H       88.293     -24.781     -67.712
  H       82.940     -17.978     -68.894
  H       90.155     -23.708     -68.902
  H       84.173     -17.530     -70.041
  H       89.533     -25.089     -69.833
  P       86.099     -26.486     -70.783
  C       83.798     -26.696     -69.671
  O       84.554     -26.072     -70.690
  O       86.040     -28.063     -70.502
  O       86.796     -26.169     -72.063
  H       85.744     -28.532     -71.303
  H       82.818     -26.216     -69.616
  H       84.297     -26.591     -68.704
  H       83.659     -27.755     -69.905
  H       91.579     -19.967     -70.220
  H       89.897     -20.428     -70.326
  H       90.826     -20.167     -71.783

 3  4  5  6  7  8  9  10  11  12  13  21  23  27  28  29  30  32 0
 6-311+G(2d,p)
 ****
 34  35 0
 6-311+G(2d,p)
 ****
 1  2  14  15  16  17  18  19  20  22  24  25  26 0
 3-21G
 ****
 31  33  36  37  38  39  40  41  42  43  44  45  46 0
 3-21G
 ****


