%nproc=1
%NoSave
%Mem=1900MB
#P OB98/GEN NMR

erre ene a

0 1
  C     -153.526     -12.224     207.989
  O     -154.648     -12.976     207.570
  H     -152.783     -12.224     207.186
  H     -153.081     -12.679     208.879
  H     -153.817     -11.192     208.202
  P     -155.878     -13.064     208.595
  C     -156.291     -15.634     208.673
  O     -156.716     -14.369     208.178
  C     -157.366     -16.681     208.409
  O     -158.513     -16.421     209.249
  C     -157.898     -16.683     206.979
  O     -157.022     -17.354     206.087
  C     -159.235     -17.389     207.161
  O     -159.083     -18.816     207.167
  C     -159.679     -16.907     208.548
  N     -164.386     -15.806     206.926
  C     -163.675     -16.958     206.929
  N     -162.428     -17.171     207.399
  C     -161.918     -16.040     207.918
  C     -162.522     -14.793     207.978
  C     -163.821     -14.695     207.454
  N     -164.530     -13.518     207.419
  N     -161.664     -13.869     208.541
  C     -160.569     -14.546     208.822
  N     -160.681     -15.861     208.468
  O     -156.815     -11.848     208.136
  O     -155.513     -12.977     210.039
  H     -158.790     -19.068     206.269
  H     -156.618     -11.062     208.680
  H     -164.174     -17.819     206.490
  H     -159.671     -14.130     209.271
  H     -160.104     -17.715     209.153
  H     -159.929     -17.139     206.357
  H     -158.083     -15.656     206.642
  H     -156.965     -17.670     208.674
  H     -156.119     -15.558     209.755
  H     -155.350     -15.909     208.182
  H     -165.447     -13.516     207.004
  H     -164.074     -12.664     207.714
  P     -156.609     -16.620     204.725
  C     -156.849     -18.787     203.307
  O     -156.004     -17.732     203.738
  O     -155.333     -15.755     205.149
  O     -157.682     -15.777     204.121
  H     -155.586     -14.822     205.295
  H     -156.302     -19.440     202.659
  H     -157.686     -18.380     202.779
  H     -157.196     -19.336     204.157

 6  7  8  9  10  11  12  13  14  15  25  28  32  33  34  35 0
 6-311+G(2d,p)
 ****
 36  37  40 0
 6-311+G(2d,p)
 ****
 1  2  3  4  5  16  17  18  19  20  21  22  23  24 0
 3-21G
 ****
 26  27  29  30  31  38  39 41  42  43  44  45  46  47  48 0
 3-21G
 ****


