%nproc=1
%NoSave
%Mem=1900MB
#P OB98/GEN NMR

erre ene a

0 1
  C     -822.993    2153.395    1592.995
  O     -821.671    2153.812    1592.620
  P     -820.973    2153.031    1591.413
  C     -818.504    2153.946    1591.621
  O     -819.742    2153.961    1590.925
  C     -817.559    2155.014    1591.084
  O     -817.252    2154.750    1589.717
  C     -818.129    2156.437    1591.104
  O     -818.136    2156.996    1592.417
  C     -817.201    2157.110    1590.103
  O     -815.952    2157.437    1590.785
  C     -816.959    2155.994    1589.084
  N     -818.049    2158.905    1584.959
  C     -817.153    2159.048    1585.980
  N     -816.918    2158.275    1587.043
  C     -817.762    2157.225    1586.991
  C     -818.762    2156.921    1586.061
  C     -818.909    2157.802    1585.027
  N     -819.817    2157.664    1583.994
  N     -819.417    2155.752    1586.411
  C     -818.845    2155.347    1587.520
  N     -817.850    2156.149    1587.896
  O     -822.028    2153.168    1590.233
  O     -820.581    2151.604    1591.677
  H     -815.315    2157.763    1590.116
  H     -822.037    2152.352    1589.656
  H     -816.519    2159.913    1585.905
  H     -819.101    2154.415    1588.053
  H     -815.925    2155.993    1588.716
  H     -817.619    2158.064    1589.718
  H     -819.166    2156.437    1590.668
  H     -816.649    2154.965    1591.731
  H     -818.057    2152.950    1591.497
  H     -819.954    2158.455    1583.372
  H     -820.506    2156.955    1584.103
  H     -818.724    2154.073    1592.695
  P     -819.437    2157.830    1592.868
  C     -817.524    2159.417    1593.567
  O     -818.853    2159.003    1593.762
  O     -820.142    2156.830    1593.880
  O     -820.295    2158.291    1591.718
  H     -819.495    2156.512    1594.561
  H     -817.270    2160.211    1594.241
  H     -817.409    2159.739    1592.513
  H     -816.832    2158.581    1593.738
  H     -823.339    2153.996    1593.809
  H     -822.972    2152.368    1593.294
  H     -823.653    2153.510    1592.161

 3  4  5  6  7  8  9  10  11  12  22  25  29  30  31  32 0
 6-311+G(2d,p)
 ****
 33  36  37 0
 6-311+G(2d,p)
 ****
 1  2  13  14  15  16  17  18  19  20  21  23  24  26 0
 3-21G
 ****
 27  28  34  35  38  39  40  41  42  43  44  45  46  47  48 0
 3-21G
 ****


