%nproc=1
%NoSave
%Mem=1900MB
#P OB98/GEN NMR

erre ene a

0 1
  C     -878.236     299.062    -308.784
  O     -879.396     299.304    -309.554
  H     -878.262     299.699    -307.897
  H     -877.346     299.307    -309.368
  H     -878.197     298.014    -308.464
  P     -879.686     298.321    -310.783
  C     -879.386     300.350    -312.380
  O     -880.186     299.239    -312.004
  C     -879.929     300.978    -313.666
  O     -879.847     299.990    -314.730
  C     -881.399     301.422    -313.563
  O     -881.560     302.618    -314.330
  C     -882.147     300.288    -314.244
  O     -883.426     300.655    -314.745
  C     -881.149     299.903    -315.344
  N     -881.387     298.562    -315.878
  C     -881.935     298.473    -317.157
  O     -882.147     299.433    -317.896
  N     -882.236     297.200    -317.574
  C     -882.084     296.057    -316.856
  O     -882.396     294.954    -317.283
  C     -881.508     296.217    -315.507
  C     -881.195     297.444    -315.091
  O     -881.014     297.555    -310.324
  O     -878.572     297.382    -311.126
  H     -880.790     296.747    -309.823
  H     -883.760     299.910    -315.279
  H     -882.637     297.122    -318.501
  H     -881.379     295.327    -314.909
  H     -880.795     297.598    -314.096
  H     -881.183     300.634    -316.157
  H     -882.288     299.455    -313.539
  H     -881.748     301.583    -312.538
  H     -879.289     301.817    -313.946
  H     -878.357     300.009    -312.559
  H     -879.380     301.086    -311.566
  P     -881.174     304.006    -313.628
  C     -883.401     305.186    -314.353
  O     -881.978     305.134    -314.424
  O     -879.661     304.182    -314.098
  O     -881.380     303.990    -312.147
  H     -879.502     303.849    -314.995
  H     -883.758     306.002    -314.946
  H     -883.702     305.326    -313.336
  H     -883.810     304.270    -314.724

 6  7  8  9  10  11  12  13  14  15  16  27  31  32  33  34  35 0
 6-311+G(2d,p)
 ****
 36  37 0
 6-311+G(2d,p)
 ****
 1  2  3  4  5  17  18  19  20  21  22  23  24  25 0
 3-21G
 ****
 26  28  29  30  38  39  40  41  42  43  44  45 0
 3-21G
 ****


