%nproc=1
%NoSave
%Mem=1900MB
#P OB98/GEN NMR

erre ene a

0 1
  C      103.523     471.517     223.072
  O      102.902     471.504     221.796
  P      102.641     470.065     221.118
  C      104.491     469.975     219.290
  O      103.114     470.181     219.589
  C      104.788     470.271     217.816
  O      106.209     470.071     217.572
  C      104.024     469.369     216.828
  O      103.735     470.175     215.678
  C      105.065     468.299     216.507
  O      104.783     467.554     215.333
  C      106.321     469.150     216.463
  N      109.181     465.523     214.251
  C      108.045     466.149     213.847
  N      107.342     467.124     214.489
  C      107.932     467.436     215.657
  C      109.080     466.868     216.211
  C      109.719     465.874     215.449
  N      110.868     465.227     215.868
  N      109.359     467.438     217.434
  C      108.403     468.319     217.624
  N      107.535     468.373     216.580
  O      101.039     470.009     221.003
  O      103.187     468.896     221.874
  H      105.546     467.000     215.102
  H      100.702     469.121     221.188
  H      107.660     465.836     212.881
  H      108.286     468.935     218.508
  H      106.385     469.757     215.541
  H      105.109     467.578     217.337
  H      103.087     468.965     217.226
  H      104.563     471.317     217.618
  H      104.746     468.932     219.493
  H      111.125     464.398     215.356
  H      111.132     465.345     216.840
  H      105.106     470.599     219.948
  P      102.246     470.193     215.098
  C      102.969     469.062     212.896
  O      102.440     470.241     213.492
  O      101.810     471.703     215.412
  O      101.308     469.146     215.644
  H      102.471     472.339     215.092
  H      102.958     469.204     211.820
  H      102.361     468.198     213.159
  H      104.005     468.917     213.223
  H      103.636     472.528     223.403
  H      104.485     471.054     223.005
  H      102.916     470.979     223.770

 3  4  5  6  7  8  9  10  11  12  22  25  29  30  31  32 0
 6-311+G(2d,p)
 ****
 33  36  37 0
 6-311+G(2d,p)
 ****
 1  2  13  14  15  16  17  18  19  20  21  23  24  26 0
 3-21G
 ****
 27  28  34  35  38  39  40  41  42  43  44  45  46  47  48 0
 3-21G
 ****


