%nproc=1
%NoSave
%Mem=1900MB
#P OB98/GEN NMR

erre ene a

0 1
  C      496.214     -85.542      75.017
  O      496.366     -84.767      76.188
  H      496.243     -84.875      74.151
  H      495.254     -86.064      75.024
  H      497.030     -86.264      74.928
  P      496.292     -85.500      77.610
  C      493.713     -85.437      77.493
  O      494.872     -86.246      77.673
  C      492.584     -86.262      76.870
  O      492.191     -87.270      77.835
  C      491.349     -85.415      76.530
  O      490.920     -85.565      75.179
  C      490.361     -85.777      77.632
  O      489.002     -85.616      77.280
  C      490.762     -87.212      77.998
  N      490.380     -87.604      79.354
  C      489.286     -88.455      79.486
  O      488.631     -88.917      78.554
  N      488.949     -88.785      80.775
  C      489.574     -88.358      81.904
  O      489.230     -88.693      83.030
  C      490.710     -87.445      81.699
  C      491.055     -87.112      80.452
  O      496.601     -84.646      78.794
  O      497.326     -86.714      77.476
  H      488.462     -85.919      78.034
  H      498.156     -86.489      77.943
  H      488.163     -89.410      80.882
  H      491.223     -87.076      82.575
  H      491.890     -86.447      80.264
  H      490.310     -87.922      77.305
  H      490.549     -85.122      78.490
  H      491.584     -84.345      76.604
  H      492.972     -86.785      75.987
  H      493.984     -84.605      76.838
  H      493.389     -85.038      78.463
  P      491.350     -84.606      73.977
  C      489.522     -82.842      74.626
  O      490.884     -83.119      74.336
  O      491.029     -85.104      72.608
  O      492.958     -84.542      74.110
  H      493.305     -84.451      73.199
  H      489.408     -81.800      74.840
  H      489.214     -83.417      75.474
  H      488.918     -83.101      73.782

 6  7  8  9  10  11  12  13  14  15  16  26  31  32  33  34  35 0
 6-311+G(2d,p)
 ****
 36  37 0
 6-311+G(2d,p)
 ****
 1  2  3  4  5  17  18  19  20  21  22  23  24  25 0
 3-21G
 ****
 27  28  29  30  38  39  40  41  42  43  44  45 0
 3-21G
 ****


