%nproc=1
%NoSave
%Mem=1900MB
#P OB98/GEN NMR

erre ene a

0 1
  C     -279.792    -279.511    -161.812
  O     -278.918    -279.225    -160.738
  P     -279.357    -278.238    -159.556
  C     -279.026    -279.526    -157.364
  O     -278.468    -278.582    -158.267
  C     -278.052    -279.861    -156.233
  O     -276.873    -280.505    -156.786
  C     -277.586    -278.637    -155.428
  O     -277.490    -279.044    -154.057
  C     -276.208    -278.359    -155.999
  O     -275.391    -277.618    -155.102
  C     -275.728    -279.785    -156.295
  N     -274.631    -279.814    -157.253
  C     -273.347    -279.590    -156.751
  O     -273.191    -279.249    -155.576
  N     -272.273    -279.741    -157.598
  C     -272.485    -279.910    -158.864
  N     -271.399    -280.125    -159.660
  C     -273.836    -279.904    -159.467
  C     -274.853    -279.896    -158.607
  O     -280.824    -278.174    -159.297
  O     -278.794    -276.807    -160.010
  H     -279.522    -276.155    -159.991
  H     -275.841    -276.772    -154.891
  H     -273.954    -279.921    -160.543
  H     -275.880    -279.915    -158.949
  H     -275.403    -280.281    -155.371
  H     -276.304    -277.786    -156.924
  H     -278.271    -277.790    -155.505
  H     -278.540    -280.583    -155.568
  H     -270.493    -280.162    -159.207
  H     -279.251    -280.439    -157.922
  H     -271.476    -280.572    -160.575
  H     -279.971    -279.142    -156.963
  P     -278.357    -278.252    -152.961
  C     -278.159    -279.989    -151.041
  O     -277.840    -278.692    -151.511
  O     -279.772    -279.015    -153.060
  O     -278.555    -276.789    -153.199
  H     -280.477    -278.411    -152.763
  H     -277.786    -280.087    -150.015
  H     -277.679    -280.745    -151.662
  H     -279.241    -280.141    -151.037
  H     -279.314    -280.186    -162.491
  H     -280.036    -278.604    -162.324
  H     -280.687    -279.959    -161.434

 3  4  5  6  7  8  9  10  11  12  13  24  27  28  29  30  32 0
 6-311+G(2d,p)
 ****
 34  35 0
 6-311+G(2d,p)
 ****
 1  2  14  15  16  17  18  19  20  21  22  23  25  26 0
 3-21G
 ****
 31  33  36  37  38  39  40  41  42  43  44  45  46 0
 3-21G
 ****


