%nproc=1
%NoSave
%Mem=1900MB
#P OB98/GEN NMR

erre ene a

0 1
  C     -215.129      77.384     -80.496
  O     -215.940      76.595     -79.645
  H     -215.368      77.139     -81.532
  H     -214.075      77.163     -80.314
  H     -215.324      78.448     -80.327
  P     -215.880      76.932     -78.073
  C     -218.210      76.143     -77.160
  O     -216.838      75.858     -77.370
  C     -219.009      75.905     -78.441
  O     -218.811      74.534     -78.863
  C     -220.513      76.133     -78.283
  O     -221.015      76.721     -79.483
  C     -221.070      74.731     -78.120
  O     -222.445      74.658     -78.491
  C     -220.108      73.912     -78.991
  N     -220.063      72.506     -78.602
  C     -220.674      71.593     -79.468
  O     -221.235      71.989     -80.490
  N     -220.676      70.260     -79.135
  C     -220.176      69.880     -78.003
  N     -220.224      68.551     -77.720
  C     -219.565      70.815     -77.033
  C     -219.534      72.098     -77.398
  O     -216.718      78.296     -78.005
  O     -214.498      77.024     -77.521
  H     -222.953      75.242     -77.885
  H     -217.513      78.294     -78.563
  H     -219.176      70.449     -76.093
  H     -219.099      72.849     -76.750
  H     -220.403      73.970     -80.050
  H     -220.990      74.417     -77.070
  H     -220.770      76.765     -77.433
  H     -218.593      76.544     -79.230
  H     -220.667      67.945     -78.401
  H     -218.336      77.181     -76.837
  H     -219.914      68.153     -76.848
  H     -218.573      75.489     -76.360
  P     -221.956      78.012     -79.390
  C     -221.241      79.877     -81.027
  O     -222.031      78.709     -80.836
  O     -221.681      78.942     -78.256
  O     -223.427      77.372     -79.248
  H     -223.931      77.922     -78.619
  H     -221.379      80.242     -82.023
  H     -220.209      79.639     -80.874
  H     -221.541      80.629     -80.327

 6  7  8  9  10  11  12  13  14  15  16  26  30  31  32  33  35 0
 6-311+G(2d,p)
 ****
 37  38 0
 6-311+G(2d,p)
 ****
 1  2  3  4  5  17  18  19  20  21  22  23  24  25 0
 3-21G
 ****
 27  28  29  34  36  39  40  41  42  43  44  45  46 0
 3-21G
 ****


