%nproc=1
%NoSave
%Mem=1900MB
#P OB98/GEN NMR

erre ene a

0 1
  C      -88.723    -249.920    -366.475
  O      -88.401    -250.883    -365.493
  H      -89.433    -249.208    -366.045
  H      -89.185    -250.393    -367.345
  H      -87.826    -249.373    -366.779
  P      -87.460    -252.111    -365.910
  C      -85.577    -251.492    -364.247
  O      -85.952    -251.659    -365.607
  C      -85.130    -252.827    -363.637
  O      -83.861    -253.218    -364.234
  C      -84.921    -252.776    -362.113
  O      -85.207    -254.081    -361.598
  C      -83.437    -252.480    -362.025
  O      -82.941    -252.708    -360.731
  C      -82.910    -253.369    -363.158
  N      -81.559    -253.015    -363.566
  C      -80.524    -253.735    -362.962
  O      -80.775    -254.602    -362.126
  N      -79.228    -253.432    -363.300
  C      -78.988    -252.450    -364.112
  N      -77.680    -252.193    -364.393
  C      -80.052    -251.629    -364.725
  C      -81.301    -251.966    -364.415
  O      -87.686    -252.669    -367.276
  O      -87.740    -253.213    -364.779
  H      -81.980    -252.507    -360.681
  H      -88.300    -253.923    -365.145
  H      -79.796    -250.810    -365.384
  H      -82.151    -251.419    -364.814
  H      -82.919    -254.427    -362.857
  H      -83.240    -251.426    -362.256
  H      -85.549    -252.027    -361.622
  H      -85.859    -253.599    -363.909
  H      -76.984    -252.775    -363.942
  H      -86.448    -251.108    -363.709
  H      -77.372    -251.443    -364.994
  H      -84.764    -250.763    -364.166
  P      -86.284    -254.340    -360.436
  C      -87.709    -255.929    -361.888
  O      -87.687    -254.744    -361.096
  O      -86.376    -253.238    -359.434
  O      -85.807    -255.699    -359.725
  H      -86.061    -255.674    -358.783
  H      -88.697    -256.086    -362.268
  H      -87.421    -256.766    -361.286
  H      -87.025    -255.825    -362.704

 6  7  8  9  10  11  12  13  14  15  16  26  30  31  32  33  35 0
 6-311+G(2d,p)
 ****
 37  38 0
 6-311+G(2d,p)
 ****
 1  2  3  4  5  17  18  19  20  21  22  23  24  25 0
 3-21G
 ****
 27  28  29  34  36  39  40  41  42  43  44  45  46 0
 3-21G
 ****


