%nproc=1
%NoSave
%Mem=1900MB
#P OB98/GEN NMR

erre ene a

0 1
  C     -334.498      75.517     -60.786
  O     -334.595      74.107     -60.756
  H     -334.456      75.848     -61.828
  H     -333.585      75.842     -60.278
  H     -335.370      75.971     -60.305
  P     -334.782      73.417     -59.320
  C     -337.251      72.690     -59.742
  O     -335.910      72.286     -59.506
  C     -338.031      71.543     -60.395
  O     -337.433      71.259     -61.691
  C     -338.001      70.248     -59.575
  O     -339.265      69.585     -59.698
  C     -336.920      69.425     -60.267
  O     -337.047      68.027     -60.057
  C     -337.128      69.847     -61.728
  N     -335.947      69.601     -62.554
  C     -335.324      68.362     -62.428
  O     -335.745      67.431     -61.732
  N     -334.170      68.198     -63.150
  C     -333.575      69.143     -63.948
  O     -332.529      68.943     -64.550
  C     -334.276      70.436     -64.028
  C     -335.405      70.603     -63.337
  O     -335.537      74.545     -58.466
  O     -333.534      72.939     -58.662
  H     -334.893      75.117     -58.008
  H     -336.949      67.854     -59.097
  H     -333.711      67.305     -63.073
  H     -333.827      71.208     -64.643
  H     -335.935      71.550     -63.372
  H     -337.997      69.332     -62.154
  H     -335.931      69.733     -59.911
  H     -337.770      70.413     -58.523
  H     -339.065      71.872     -60.575
  H     -337.252      73.557     -60.415
  H     -337.718      72.974     -58.794
  P     -339.960      69.071     -58.344
  C     -341.947      70.741     -58.022
  O     -341.514      69.468     -58.471
  O     -339.369      70.096     -57.272
  O     -339.688      67.629     -58.059
  H     -339.270      71.003     -57.619
  H     -343.001      70.836     -58.181
  H     -341.434      71.505     -58.568
  H     -341.733      70.843     -56.979

 6  7  8  9  10  11  12  13  14  15  16  27  31  32  33  34  35 0
 6-311+G(2d,p)
 ****
 36  37 0
 6-311+G(2d,p)
 ****
 1  2  3  4  5  17  18  19  20  21  22  23  24  25 0
 3-21G
 ****
 26  28  29  30  38  39  40  41  42  43  44  45 0
 3-21G
 ****


