%nproc=1
%NoSave
%Mem=1900MB
#P OB98/GEN NMR

erre ene a

0 1
  C     -244.745     -91.461     357.537
  O     -245.575     -92.615     357.359
  P     -247.035     -92.586     358.030
  C     -246.803     -93.485     360.478
  O     -246.792     -92.367     359.604
  C     -246.481     -93.061     361.917
  O     -247.567     -92.232     362.438
  C     -246.273     -94.228     362.894
  O     -245.229     -93.828     363.796
  C     -247.603     -94.306     363.625
  O     -247.478     -94.957     364.883
  C     -247.969     -92.812     363.694
  N     -249.390     -92.593     363.960
  C     -249.731     -92.098     365.211
  O     -248.904     -91.909     366.105
  N     -251.060     -91.860     365.420
  C     -252.071     -92.136     364.548
  O     -253.249     -91.904     364.785
  C     -251.658     -92.773     363.281
  C     -250.365     -92.968     363.054
  O     -247.475     -94.116     357.905
  O     -247.952     -91.601     357.380
  H     -246.743     -94.746     358.031
  H     -248.289     -94.796     365.406
  H     -251.328     -91.458     366.313
  H     -252.442     -93.059     362.581
  H     -250.030     -93.450     362.138
  H     -247.396     -92.313     364.486
  H     -248.331     -94.853     363.020
  H     -245.995     -95.160     362.393
  H     -245.581     -92.436     361.883
  H     -246.061     -94.222     360.154
  H     -247.794     -93.980     360.424
  P     -243.713     -94.223     363.421
  C     -243.998     -96.582     364.535
  O     -243.637     -95.819     363.401
  O     -242.983     -93.851     364.808
  O     -243.137     -93.497     362.251
  H     -243.444     -94.191     365.583
  H     -244.105     -97.627     364.247
  H     -244.948     -96.234     364.950
  H     -243.215     -96.505     365.303
  H     -243.809     -91.615     357.042
  H     -244.574     -91.302     358.581
  H     -245.232     -90.604     357.121

 3  4  5  6  7  8  9  10  11  12  13  24  28  29  30  31  32 0
 6-311+G(2d,p)
 ****
 33  34 0
 6-311+G(2d,p)
 ****
 1  2  14  15  16  17  18  19  20  21  22  23  25  26  27 0
 3-21G
 ****
 35  36  37  38  39  40  41  42  43  44  45 0
 3-21G
 ****


