%nproc=1
%NoSave
%Mem=1900MB
#P OB98/GEN NMR

erre ene a

0 1
  C      557.715     664.843    -893.360
  O      557.498     663.436    -893.430
  P      558.747     662.512    -893.810
  C      560.663     662.840    -895.550
  O      559.284     662.996    -895.230
  C      561.013     663.621    -896.830
  O      560.959     665.049    -896.570
  C      562.392     663.339    -897.370
  O      562.443     662.112    -898.080
  C      562.644     664.545    -898.260
  O      562.046     664.382    -899.550
  C      561.908     665.670    -897.480
  N      562.850     666.538    -896.750
  C      563.804     667.184    -897.520
  O      563.900     667.027    -898.730
  N      564.689     667.998    -896.850
  C      564.721     668.181    -895.500
  O      565.566     668.861    -894.950
  C      563.689     667.459    -894.720
  C      562.830     666.679    -895.380
  O      558.083     661.089    -894.110
  O      559.811     662.428    -892.740
  H      562.544     663.660    -900.000
  H      558.684     660.377    -893.820
  H      565.386     668.476    -897.390
  H      563.702     667.570    -893.630
  H      562.082     666.130    -894.820
  H      561.325     666.293    -898.160
  H      563.703     664.749    -898.430
  H      563.141     663.346    -896.560
  H      560.249     663.383    -897.590
  H      560.886     661.771    -895.700
  H      561.261     663.218    -894.720
  P      563.874     661.357    -898.140
  C      566.187     662.426    -898.650
  O      564.820     662.305    -898.990
  O      563.502     660.113    -899.100
  O      564.363     660.961    -896.770
  H      562.839     660.356    -899.770
  H      566.589     661.500    -898.280
  H      566.293     663.209    -897.900
  H      566.735     662.754    -899.560
  H      556.800     665.332    -893.098
  H      558.051     665.200    -894.311
  H      558.457     665.053    -892.618

 3  4  5  6  7  8  9  10  11  12  13  23  28  29  30  31  32 0
 6-311+G(2d,p)
 ****
 33  34 0
 6-311+G(2d,p)
 ****
 1  2  14  15  16  17  18  19  20  21  22  24  25  26 0
 3-21G
 ****
 27  35  36  37  38  39  40  41  42  43  44  45 0
 3-21G
 ****


