%nproc=1
%NoSave
%Mem=1900MB
#P OB98/GEN NMR

erre ene a

0 1
  C     -224.707     -91.782     -95.473
  O     -225.137     -90.436     -95.452
  H     -224.619     -92.138     -94.443
  H     -223.731     -91.861     -95.957
  H     -225.436     -92.402     -96.000
  P     -225.276     -89.698     -96.870
  C     -223.490     -88.343     -98.183
  O     -223.787     -89.517     -97.441
  C     -222.112     -88.480     -98.826
  O     -222.181     -89.397     -99.942
  C     -221.565     -87.182     -99.402
  O     -221.032     -86.330     -98.402
  C     -220.504     -87.714    -100.352
  O     -219.270     -87.983     -99.665
  C     -221.146     -89.018    -100.872
  N     -221.658     -88.876    -102.231
  C     -220.707     -88.591    -103.206
  O     -219.509     -88.463    -102.963
  N     -221.187     -88.419    -104.477
  C     -222.499     -88.465    -104.850
  O     -222.869     -88.231    -105.992
  C     -223.458     -88.783    -103.779
  C     -223.003     -88.962    -102.536
  O     -225.713     -88.213     -96.464
  O     -226.238     -90.330     -97.820
  H     -226.668     -88.095     -96.617
  H     -218.929     -87.115     -99.369
  H     -220.515     -88.202    -105.194
  H     -224.507     -88.834    -104.041
  H     -223.692     -89.176    -101.726
  H     -220.409     -89.831    -100.871
  H     -220.274     -86.997    -101.139
  H     -222.338     -86.670     -99.989
  H     -221.420     -88.894     -98.081
  H     -223.486     -87.477     -97.512
  H     -224.264     -88.196     -98.943
  P     -220.835     -84.777     -98.744
  C     -219.522     -83.490    -100.619
  O     -219.767     -84.706     -99.940
  O     -220.017     -84.280     -97.461
  O     -222.112     -84.052     -98.998
  H     -219.396     -84.948     -97.124
  H     -218.783     -83.647    -101.377
  H     -219.169     -82.758     -99.923
  H     -220.428     -83.145    -101.071

 6  7  8  9  10  11  12  13  14  15  16  27  31  32  33  34  35 0
 6-311+G(2d,p)
 ****
 36  37 0
 6-311+G(2d,p)
 ****
 1  2  3  4  5  17  18  19  20  21  22  23  24  25 0
 3-21G
 ****
 26  28  29  30  38  39  40  41  42  43  44  45 0
 3-21G
 ****


