%nproc=1
%NoSave
%Mem=1900MB
#P OB98/GEN NMR

erre ene a

0 1
  C     -425.408      62.452     304.777
  O     -425.995      63.044     305.915
  P     -425.535      64.474     306.449
  C     -427.853      65.479     305.893
  O     -426.867      65.260     306.906
  C     -429.085      66.139     306.503
  O     -429.775      65.175     307.358
  C     -428.740      67.384     307.373
  O     -429.456      68.569     307.022
  C     -428.971      66.876     308.784
  O     -429.177      67.904     309.742
  C     -430.114      65.877     308.579
  N     -430.282      64.969     309.714
  C     -430.599      65.546     310.946
  O     -430.759      66.742     311.135
  N     -430.674      64.672     312.007
  C     -430.347      63.360     311.980
  O     -430.343      62.650     312.992
  C     -429.979      62.813     310.666
  C     -429.983      63.619     309.599
  O     -424.666      65.251     305.510
  O     -424.847      64.148     307.852
  H     -429.960      68.406     309.467
  H     -425.425      63.713     308.496
  H     -430.909      65.088     312.900
  H     -429.708      61.771     310.617
  H     -429.720      63.249     308.607
  H     -431.064      66.385     308.416
  H     -428.063      66.329     309.100
  H     -427.697      67.663     307.248
  H     -429.759      66.422     305.683
  H     -428.137      64.517     305.471
  H     -427.422      66.087     305.090
  P     -428.825      70.036     306.949
  C     -429.746      70.271     304.512
  O     -429.585      70.853     305.794
  O     -427.333      70.075     306.864
  O     -429.338      70.735     308.298
  H     -428.691      71.416     308.580
  H     -429.793      71.066     303.772
  H     -430.683      69.705     304.492
  H     -428.913      69.603     304.269
  H     -425.862      61.500     304.596
  H     -424.359      62.321     304.944
  H     -425.558      63.086     303.928

 3  4  5  6  7  8  9  10  11  12  13  23  28  29  30  31  32 0
 6-311+G(2d,p)
 ****
 33  34 0
 6-311+G(2d,p)
 ****
 1  2  14  15  16  17  18  19  20  21  22  24  25  26  27 0
 3-21G
 ****
 35  36  37  38  39  40  41  42  43  44  45 0
 3-21G
 ****


