%nproc=1
%NoSave
%Mem=1900MB
#P OB98/GEN NMR

erre ene a

0 1
  C     -446.500    -433.230     358.402
  O     -446.432    -432.852     357.025
  P     -446.518    -431.307     356.598
  C     -448.835    -430.829     357.574
  O     -448.063    -430.911     356.379
  C     -450.345    -430.684     357.318
  O     -450.610    -429.593     356.405
  C     -451.021    -431.934     356.736
  O     -452.346    -431.949     357.270
  C     -451.041    -431.623     355.247
  O     -451.982    -432.418     354.532
  C     -451.320    -430.115     355.266
  N     -450.926    -429.460     354.025
  C     -451.933    -429.157     353.110
  O     -453.093    -429.495     353.341
  N     -451.595    -428.524     351.940
  C     -450.352    -428.307     351.662
  N     -450.082    -427.698     350.475
  C     -449.242    -428.684     352.564
  C     -449.600    -429.242     353.716
  O     -445.614    -430.919     355.472
  O     -446.124    -430.514     357.936
  H     -451.905    -432.197     353.580
  H     -445.693    -429.673     357.695
  H     -448.214    -428.505     352.278
  H     -448.861    -429.550     354.445
  H     -452.393    -429.923     355.428
  H     -450.045    -431.819     354.816
  H     -450.490    -432.862     356.965
  H     -450.815    -430.424     358.271
  H     -450.867    -427.481     349.875
  H     -448.490    -429.969     358.155
  H     -449.146    -427.583     350.112
  H     -448.651    -431.724     358.181
  P     -452.758    -432.899     358.487
  C     -454.391    -434.311     357.097
  O     -454.245    -433.415     358.186
  O     -452.568    -432.313     359.844
  O     -451.867    -434.225     358.291
  H     -451.855    -434.720     359.126
  H     -455.391    -434.750     357.126
  H     -453.644    -435.112     357.157
  H     -454.264    -433.766     356.151
  H     -446.426    -434.294     358.484
  H     -447.432    -432.905     358.816
  H     -445.693    -432.774     358.937

 3  4  5  6  7  8  9  10  11  12  13  23  27  28  29  30  32 0
 6-311+G(2d,p)
 ****
 34  35 0
 6-311+G(2d,p)
 ****
 1  2  14  15  16  17  18  19  20  21  22  24  25  26 0
 3-21G
 ****
 31  33  36  37  38  39  40  41  42  43  44  45  46 0
 3-21G
 ****


