%nproc=1
%NoSave
%Mem=1900MB
#P OB98/GEN NMR

erre ene a

0 1
  C      573.115      85.523     624.827
  O      573.466      84.149     624.959
  P      573.244      83.430     626.380
  C      571.371      81.743     625.841
  O      571.704      82.977     626.472
  C      570.205      81.069     626.570
  O      570.475      80.907     627.977
  C      568.911      81.856     626.503
  O      568.321      81.755     625.215
  C      568.110      81.223     627.635
  O      567.484      80.001     627.203
  C      569.214      80.912     628.668
  N      569.220      81.845     629.795
  C      568.276      81.609     630.793
  O      567.464      80.687     630.682
  N      568.260      82.435     631.890
  C      569.105      83.411     631.975
  N      569.048      84.202     633.081
  C      570.113      83.704     630.928
  C      570.107      82.887     629.880
  O      573.763      84.166     627.566
  O      574.003      82.028     626.187
  H      566.950      80.241     626.420
  H      574.341      81.735     627.055
  H      570.805      84.524     631.048
  H      570.815      83.034     629.063
  H      569.076      79.903     629.079
  H      567.315      81.885     627.988
  H      569.105      82.912     626.733
  H      570.058      80.074     626.126
  H      568.337      83.987     633.771
  H      572.240      81.086     625.837
  H      569.697      84.952     633.262
  H      571.117      81.943     624.796
  P      568.377      83.048     624.267
  C      569.762      81.596     622.627
  O      569.595      82.856     623.253
  O      568.891      84.198     625.261
  O      567.073      83.419     623.645
  H      568.488      85.050     625.011
  H      570.419      81.722     621.757
  H      568.812      81.184     622.295
  H      570.242      80.902     623.326
  H      573.322      85.850     623.829
  H      573.687      86.105     625.519
  H      572.072      85.646     625.034

 3  4  5  6  7  8  9  10  11  12  13  23  27  28  29  30  32 0
 6-311+G(2d,p)
 ****
 34  35 0
 6-311+G(2d,p)
 ****
 1  2  14  15  16  17  18  19  20  21  22  24  25  26 0
 3-21G
 ****
 31  33  36  37  38  39  40  41  42  43  44  45  46 0
 3-21G
 ****


