%nproc=1
%NoSave
%Mem=1900MB
#P OB98/GEN NMR

erre ene a

0 1
  C       37.028    -260.494      28.588
  O       37.132    -261.311      27.440
  H       37.133    -259.448      28.287
  H       37.824    -260.738      29.295
  H       36.054    -260.628      29.066
  P       36.891    -262.882      27.641
  C       39.087    -263.269      28.987
  O       37.668    -263.289      28.987
  C       39.620    -264.258      30.023
  O       41.049    -264.424      29.814
  C       39.421    -263.791      31.469
  O       39.128    -264.923      32.292
  C       40.778    -263.221      31.843
  O       41.027    -263.202      33.241
  C       41.710    -264.161      31.069
  N       43.033    -263.584      30.848
  C       43.955    -263.680      31.883
  O       43.763    -264.278      32.942
  N       45.153    -263.045      31.670
  C       45.498    -262.326      30.563
  O       46.578    -261.760      30.440
  C       44.478    -262.254      29.506
  C       43.310    -262.876      29.695
  O       37.787    -263.545      26.489
  O       35.471    -263.332      27.589
  H       37.264    -263.657      25.671
  H       41.106    -264.129      33.546
  H       45.834    -263.105      32.412
  H       44.713    -261.685      28.617
  H       42.534    -262.831      28.941
  H       41.806    -265.120      31.595
  H       40.870    -262.195      31.468
  H       38.628    -263.046      31.569
  H       39.153    -265.238      29.855
  H       39.430    -262.261      29.240
  H       39.452    -263.530      27.988
  P       37.593    -265.160      32.705
  C       37.940    -264.563      35.227
  O       37.335    -264.228      33.988
  O       37.649    -266.642      33.293
  O       36.646    -264.959      31.566
  H       38.464    -266.835      33.785
  H       37.663    -263.841      35.966
  H       39.004    -264.568      35.114
  H       37.609    -265.533      35.535

 6  7  8  9  10  11  12  13  14  15  16  27  31  32  33  34  35 0
 6-311+G(2d,p)
 ****
 36  37 0
 6-311+G(2d,p)
 ****
 1  2  3  4  5  17  18  19  20  21  22  23  24  25 0
 3-21G
 ****
 26  28  29  30  38  39  40  41  42  43  44  45 0
 3-21G
 ****


