%nproc=1
%NoSave
%Mem=1900MB
#P OB98/GEN NMR

erre ene a

0 1
  C      191.442    -321.077    -168.428
  O      190.909    -322.359    -168.121
  P      189.650    -322.505    -167.147
  C      187.851    -321.693    -168.881
  O      188.347    -322.714    -168.041
  C      186.590    -322.196    -169.603
  O      186.914    -323.350    -170.410
  C      185.506    -322.608    -168.607
  O      184.601    -321.533    -168.388
  C      184.876    -323.806    -169.292
  O      183.926    -323.384    -170.291
  C      186.099    -324.472    -169.961
  N      186.954    -325.351    -169.142
  C      186.405    -326.481    -168.537
  O      185.231    -326.837    -168.696
  N      187.257    -327.218    -167.747
  C      188.581    -326.939    -167.529
  O      189.254    -327.447    -166.647
  C      189.158    -325.904    -168.396
  C      188.335    -325.160    -169.131
  O      189.466    -321.031    -166.567
  O      189.790    -323.524    -166.056
  H      183.355    -322.717    -169.878
  H      189.871    -320.951    -165.670
  H      186.821    -327.958    -167.193
  H      190.233    -325.751    -168.362
  H      188.739    -324.351    -169.749
  H      185.814    -325.044    -170.854
  H      184.314    -324.417    -168.571
  H      185.955    -322.942    -167.661
  H      186.225    -321.407    -170.276
  H      188.618    -321.392    -169.604
  H      187.614    -320.799    -168.288
  P      183.532    -321.637    -167.205
  C      184.515    -320.596    -165.074
  O      183.804    -320.354    -166.285
  O      183.472    -322.954    -166.485
  O      182.141    -321.301    -167.938
  H      181.665    -322.133    -168.170
  H      184.790    -319.633    -164.633
  H      185.419    -321.170    -165.275
  H      183.868    -321.143    -164.378
  H      192.275    -321.186    -169.090
  H      191.764    -320.599    -167.526
  H      190.688    -320.481    -168.898

 3  4  5  6  7  8  9  10  11  12  13  23  28  29  30  31  32 0
 6-311+G(2d,p)
 ****
 33  34 0
 6-311+G(2d,p)
 ****
 1  2  14  15  16  17  18  19  20  21  22  24  25  26  27 0
 3-21G
 ****
 35  36  37  38  39  40  41  42  43  44  45 0
 3-21G
 ****


