%nproc=1
%NoSave
%Mem=1900MB
#P OB98/GEN NMR

erre ene a

0 1
  C     -452.896     967.393    -890.680
  O     -453.693     966.618    -889.800
  P     -454.073     965.107    -890.180
  C     -455.642     964.121    -891.980
  O     -455.394     965.203    -891.110
  C     -456.639     964.517    -893.080
  O     -456.185     965.704    -893.780
  C     -456.849     963.453    -894.160
  O     -457.711     962.429    -893.680
  C     -457.449     964.294    -895.280
  O     -458.856     964.490    -895.100
  C     -456.678     965.623    -895.140
  N     -455.610     965.771    -896.120
  C     -456.014     966.164    -897.410
  O     -457.214     966.338    -897.670
  N     -455.028     966.297    -898.390
  C     -453.800     966.041    -898.100
  N     -452.900     966.197    -899.100
  C     -453.354     965.593    -896.770
  C     -454.292     965.468    -895.850
  O     -454.182     964.162    -889.040
  O     -452.926     964.684    -891.230
  H     -459.278     963.645    -895.330
  H     -452.074     964.511    -890.790
  H     -452.306     965.383    -896.590
  H     -454.040     965.147    -894.830
  H     -457.372     966.462    -895.250
  H     -457.304     963.826    -896.260
  H     -455.874     963.044    -894.450
  H     -457.615     964.752    -892.590
  H     -453.257     966.480    -900.000
  H     -456.059     963.286    -891.400
  H     -451.908     965.987    -899.010
  H     -454.684     963.791    -892.440
  P     -457.824     961.054    -894.470
  C     -457.929     960.608    -897.000
  O     -458.423     961.384    -895.930
  O     -458.489     959.917    -893.740
  O     -456.280     960.667    -894.800
  H     -456.145     959.708    -894.610
  H     -458.629     960.663    -897.830
  H     -457.823     959.562    -896.720
  H     -456.959     960.984    -897.320
  H     -452.748     968.367    -890.263
  H     -453.391     967.481    -891.625
  H     -451.948     966.916    -890.817

 3  4  5  6  7  8  9  10  11  12  13  23  27  28  29  30  32 0
 6-311+G(2d,p)
 ****
 34  35 0
 6-311+G(2d,p)
 ****
 1  2  14  15  16  17  18  19  20  21  22  24  25  26 0
 3-21G
 ****
 31  33  36  37  38  39  40  41  42  43  44  45  46 0
 3-21G
 ****


