%nproc=1
%NoSave
%Mem=1900MB
#P OB98/GEN NMR

erre ene a

0 1
  C      174.880    -176.739       2.402
  O      175.636    -175.618       2.803
  H      173.910    -176.701       2.907
  H      175.382    -177.667       2.688
  H      174.714    -176.722       1.320
  P      177.180    -175.519       2.363
  C      178.031    -176.892       4.356
  O      177.862    -176.863       2.944
  C      179.347    -177.573       4.747
  O      179.295    -178.978       4.383
  C      180.583    -176.963       4.074
  O      181.610    -176.769       5.052
  C      181.007    -178.026       3.068
  O      182.389    -177.932       2.734
  C      180.568    -179.307       3.791
  N      180.471    -180.459       2.900
  C      181.588    -181.301       2.839
  O      182.601    -181.032       3.488
  N      181.548    -182.398       2.020
  C      180.504    -182.612       1.281
  N      180.529    -183.715       0.480
  C      179.320    -181.728       1.275
  C      179.368    -180.683       2.108
  O      177.862    -174.250       2.753
  O      177.165    -175.781       0.783
  H      182.565    -177.024       2.398
  H      178.002    -175.433       0.385
  H      178.478    -181.941       0.635
  H      178.539    -179.984       2.178
  H      181.269    -179.555       4.601
  H      180.426    -177.904       2.144
  H      180.384    -176.011       3.590
  H      179.434    -177.546       5.844
  H      181.359    -184.296       0.514
  H      177.181    -177.422       4.801
  H      179.779    -183.978      -0.142
  H      178.044    -175.859       4.722
  P      181.706    -175.299       5.691
  C      183.749    -174.722       4.203
  O      182.447    -174.346       4.632
  O      182.782    -175.481       6.863
  O      180.403    -174.781       6.210
  H      182.330    -175.561       7.725
  H      184.116    -174.000       3.504
  H      183.706    -175.683       3.734
  H      184.404    -174.766       5.048

 6  7  8  9  10  11  12  13  14  15  16  26  30  31  32  33  35 0
 6-311+G(2d,p)
 ****
 37  38 0
 6-311+G(2d,p)
 ****
 1  2  3  4  5  17  18  19  20  21  22  23  24  25 0
 3-21G
 ****
 27  28  29  34  36  39  40  41  42  43  44  45  46 0
 3-21G
 ****


