%nproc=1
%NoSave
%Mem=1900MB
#P OB98/GEN NMR

erre ene a

0 1
  C     -138.950    -156.185     -48.080
  O     -138.835    -154.971     -47.366
  H     -138.118    -156.837     -47.805
  H     -138.905    -155.992     -49.155
  H     -139.889    -156.687     -47.833
  P     -140.024    -153.910     -47.536
  C     -140.056    -152.248     -45.531
  O     -139.532    -152.563     -46.813
  C     -139.360    -153.095     -44.465
  O     -137.975    -152.668     -44.367
  C     -139.985    -152.950     -43.073
  O     -139.934    -154.214     -42.405
  C     -139.063    -151.964     -42.378
  O     -139.095    -152.049     -40.961
  C     -137.711    -152.354     -42.983
  N     -136.718    -151.287     -42.874
  C     -135.773    -151.392     -41.861
  O     -135.666    -152.353     -41.099
  N     -134.918    -150.327     -41.735
  C     -134.933    -149.190     -42.487
  O     -134.156    -148.259     -42.312
  C     -135.960    -149.133     -43.537
  C     -136.792    -150.167     -43.679
  O     -141.156    -154.461     -46.547
  O     -140.523    -153.716     -48.927
  H     -141.752    -155.074     -47.018
  H     -139.963    -151.714     -40.657
  H     -134.225    -150.389     -41.005
  H     -136.008    -148.241     -44.148
  H     -137.570    -150.150     -44.434
  H     -137.328    -153.265     -42.508
  H     -139.331    -150.939     -42.660
  H     -141.015    -152.591     -43.104
  H     -139.354    -154.142     -44.789
  H     -141.129    -152.463     -45.519
  H     -139.902    -151.183     -45.330
  P     -141.213    -155.176     -42.546
  C     -140.157    -157.450     -41.806
  O     -140.995    -156.355     -41.478
  O     -140.936    -155.862     -43.961
  O     -142.507    -154.442     -42.437
  H     -139.996    -156.046     -44.126
  H     -140.127    -158.135     -40.984
  H     -139.169    -157.094     -42.010
  H     -140.543    -157.947     -42.671

 6  7  8  9  10  11  12  13  14  15  16  27  31  32  33  34  35 0
 6-311+G(2d,p)
 ****
 36  37 0
 6-311+G(2d,p)
 ****
 1  2  3  4  5  17  18  19  20  21  22  23  24  25 0
 3-21G
 ****
 26  28  29  30  38  39  40  41  42  43  44  45 0
 3-21G
 ****


