%nproc=1
%NoSave
%Mem=1900MB
#P OB98/GEN NMR

erre ene a

0 1
  C     -112.095     276.399      36.185
  O     -111.435     275.890      35.044
  H     -111.645     275.965      37.077
  H     -113.153     276.127      36.154
  H     -111.994     277.489      36.231
  P     -111.863     276.491      33.621
  C     -113.885     274.854      33.455
  O     -113.436     276.202      33.467
  C     -115.149     274.737      32.603
  O     -114.821     275.080      31.229
  C     -115.743     273.320      32.590
  O     -117.170     273.413      32.562
  C     -115.239     272.748      31.276
  O     -116.038     271.681      30.776
  C     -115.252     273.992      30.390
  N     -114.379     273.858      29.222
  C     -114.909     274.195      27.983
  O     -116.032     274.663      27.803
  N     -114.084     273.965      26.906
  C     -112.832     273.424      26.947
  O     -112.158     273.225      25.949
  C     -112.328     273.085      28.289
  C     -113.114     273.310      29.346
  O     -111.202     275.473      32.576
  O     -111.469     277.907      33.370
  H     -110.306     275.768      32.331
  H     -115.643     271.378      29.930
  H     -114.457     274.203      25.998
  H     -111.341     272.651      28.362
  H     -112.777     273.059      30.346
  H     -116.275     274.214      30.063
  H     -114.216     272.369      31.402
  H     -115.431     272.721      33.447
  H     -115.887     275.471      32.951
  H     -114.112     274.541      34.478
  H     -113.095     274.216      33.053
  P     -117.936     273.421      33.976
  C     -118.589     270.931      33.508
  O     -118.060     271.881      34.418
  O     -119.417     273.827      33.534
  O     -117.298     274.325      34.976
  H     -119.687     273.448      32.680
  H     -118.598     269.964      33.967
  H     -117.981     270.903      32.628
  H     -119.588     271.209      33.243

 6  7  8  9  10  11  12  13  14  15  16  27  31  32  33  34  35 0
 6-311+G(2d,p)
 ****
 36  37 0
 6-311+G(2d,p)
 ****
 1  2  3  4  5  17  18  19  20  21  22  23  24  25 0
 3-21G
 ****
 26  28  29  30  38  39  40  41  42  43  44  45 0
 3-21G
 ****


