%nproc=1
%NoSave
%Mem=1900MB
#P OB98/GEN NMR

erre ene a

0 1
  C     -108.203      -6.506    -395.593
  O     -108.432      -7.658    -394.807
  H     -108.510      -6.722    -396.621
  H     -107.140      -6.260    -395.594
  H     -108.787      -5.660    -395.225
  P     -108.199      -7.572    -393.224
  C     -105.803      -8.529    -393.308
  O     -107.131      -8.709    -392.836
  C     -105.161      -9.877    -393.649
  O     -105.372     -10.789    -392.541
  C     -105.737     -10.530    -394.908
  O     -104.687     -11.189    -395.616
  C     -106.710     -11.555    -394.360
  O     -106.915     -12.644    -395.259
  C     -106.033     -11.964    -393.054
  N     -108.741     -16.007    -391.697
  C     -107.791     -15.865    -392.684
  N     -107.533     -16.957    -393.439
  N     -107.147     -14.751    -392.918
  C     -107.490     -13.746    -392.071
  C     -108.415     -13.763    -391.052
  C     -109.134     -14.999    -390.820
  O     -109.997     -15.181    -389.968
  N     -108.492     -12.543    -390.432
  C     -107.618     -11.790    -391.073
  N     -106.995     -12.471    -392.086
  O     -109.448      -7.587    -392.400
  O     -107.377      -6.216    -393.016
  H     -107.317     -13.373    -394.739
  H     -107.947      -5.513    -392.649
  H     -109.213     -16.886    -391.565
  H     -107.403     -10.755    -390.851
  H     -105.279     -12.749    -393.199
  H     -107.681     -11.079    -394.170
  H     -107.973     -17.853    -393.299
  H     -106.225      -9.807    -395.563
  H     -106.814     -16.887    -394.153
  H     -104.079      -9.732    -393.741
  H     -105.224      -8.033    -392.518
  H     -105.818      -7.882    -394.193
  P     -104.138     -10.542    -396.978
  C     -105.472     -12.273    -398.324
  O     -104.216     -11.638    -398.147
  O     -102.825      -9.830    -396.868
  O     -105.309      -9.517    -397.382
  H     -104.909      -8.731    -397.806
  H     -105.405     -12.979    -399.125
  H     -106.214     -11.538    -398.557
  H     -105.745     -12.781    -397.423

 6  7  8  9  10  11  12  13  14  15  26  29  33  34 0
 6-311+G(2d,p)
 ****
 36  38  39  40  41 0
 6-311+G(2d,p)
 ****
 1  2  3  4  5  16  17  18  19  20  21  22  23  24  25 0
 3-21G
 ****
 27  28  30  31  32  35  37  42  43  44  45  46  47 0
 3-21G
 ****
 48  49 0
 3-21G
 ****


