%nproc=1
%NoSave
%Mem=1900MB
#P OB98/GEN NMR

erre ene a

0 1
  C      568.342    1047.828     495.489
  O      569.393    1048.594     494.946
  P      570.830    1047.917     494.646
  C      571.268    1050.326     493.827
  O      571.841    1049.151     494.431
  C      572.364    1051.104     493.074
  O      573.120    1050.182     492.267
  C      571.874    1052.205     492.131
  O      571.583    1053.456     492.768
  C      573.100    1052.346     491.229
  O      574.102    1053.146     491.919
  C      573.578    1050.912     491.093
  N      574.762    1049.166     486.438
  C      575.517    1049.739     487.396
  N      575.132    1050.183     488.613
  C      573.797    1049.980     488.801
  C      572.918    1049.396     487.896
  C      573.437    1048.996     486.663
  N      572.669    1048.397     485.659
  N      571.646    1049.341     488.435
  C      571.765    1049.875     489.638
  N      573.061    1050.259     489.890
  O      570.829    1046.889     493.547
  O      571.286    1047.336     496.072
  H      574.492    1052.560     492.592
  H      571.996    1046.670     495.941
  H      576.591    1049.854     487.188
  H      570.945    1050.006     490.352
  H      574.678    1050.820     491.071
  H      572.862    1052.855     490.289
  H      571.026    1051.837     491.545
  H      573.041    1051.514     493.863
  H      570.844    1050.947     494.614
  H      573.178    1048.007     484.871
  H      571.729    1048.093     485.900
  H      570.468    1050.013     493.137
  P      570.868    1054.576     491.839
  C      569.905    1055.472     494.109
  O      570.458    1055.748     492.853
  O      569.773    1054.079     490.956
  O      572.127    1055.185     491.043
  H      572.786    1055.673     491.579
  H      569.838    1056.415     494.719
  H      570.497    1054.748     494.645
  H      568.870    1055.073     493.980
  H      567.478    1048.447     495.615
  H      568.641    1047.435     496.438
  H      568.109    1047.021     494.826

 3  4  5  6  7  8  9  10  11  12  22  25  29  30  31  32 0
 6-311+G(2d,p)
 ****
 33  36  37 0
 6-311+G(2d,p)
 ****
 1  2  13  14  15  16  17  18  19  20  21  23  24  26 0
 3-21G
 ****
 27  28  34  35  38  39  40  41  42  43  44  45  46  47  48 0
 3-21G
 ****


