%nproc=1
%NoSave
%Mem=1900MB
#P OB98/GEN NMR

erre ene a

0 1
  C      379.789    -323.793    -248.835
  O      380.377    -324.643    -247.873
  H      380.004    -322.754    -248.565
  H      378.705    -323.932    -248.856
  H      380.210    -323.994    -249.824
  P      380.093    -326.213    -248.025
  C      377.864    -327.552    -248.043
  O      378.605    -326.471    -247.489
  C      376.391    -327.402    -247.684
  O      375.897    -326.127    -248.168
  C      375.485    -328.449    -248.312
  O      375.521    -329.687    -247.625
  C      374.131    -327.764    -248.200
  O      373.535    -327.975    -246.914
  C      374.487    -326.280    -248.415
  N      374.107    -325.822    -249.747
  C      373.108    -324.851    -249.786
  O      372.567    -324.395    -248.781
  N      372.718    -324.449    -251.036
  C      373.182    -324.945    -252.218
  O      372.751    -324.578    -253.305
  C      374.229    -325.978    -252.114
  C      374.631    -326.366    -250.899
  O      381.023    -326.864    -246.894
  O      380.378    -326.778    -249.377
  H      381.791    -327.295    -247.310
  H      372.693    -327.478    -246.922
  H      371.996    -323.745    -251.088
  H      374.615    -326.396    -253.036
  H      375.390    -327.138    -250.801
  H      373.966    -325.654    -247.678
  H      373.439    -328.151    -248.943
  H      375.732    -328.574    -249.374
  H      376.292    -327.414    -246.586
  H      378.235    -328.497    -247.634
  H      378.005    -327.560    -249.129
  P      374.996    -330.987    -248.403
  C      372.583    -331.669    -249.202
  O      373.398    -330.942    -248.294
  O      375.441    -332.140    -247.382
  O      375.549    -331.116    -249.782
  H      375.487    -331.812    -246.469
  H      371.552    -331.509    -248.963
  H      372.808    -332.712    -249.127
  H      372.774    -331.334    -250.200

 6  7  8  9  10  11  12  13  14  15  16  27  31  32  33  34  35 0
 6-311+G(2d,p)
 ****
 36  37 0
 6-311+G(2d,p)
 ****
 1  2  3  4  5  17  18  19  20  21  22  23  24  25 0
 3-21G
 ****
 26  28  29  30  38  39  40  41  42  43  44  45 0
 3-21G
 ****


