%nproc=1
%NoSave
%Mem=1900MB
#P OB98/GEN NMR

erre ene a

0 1
  C      -14.432    -216.829     110.513
  O      -13.345    -217.173     109.674
  P      -12.052    -216.233     109.566
  C      -12.650    -216.142     107.063
  O      -12.260    -215.392     108.209
  C      -13.714    -215.380     106.280
  O      -14.838    -215.121     107.161
  C      -13.302    -214.008     105.745
  O      -12.613    -214.040     104.510
  C      -14.660    -213.352     105.546
  O      -15.257    -213.834     104.327
  C      -15.450    -213.871     106.760
  N      -17.781    -209.852     108.910
  C      -18.068    -210.581     107.811
  N      -17.385    -211.629     107.286
  C      -16.332    -211.929     108.059
  C      -15.911    -211.277     109.212
  C      -16.696    -210.192     109.639
  N      -16.412    -209.465     110.775
  N      -14.764    -211.866     109.719
  C      -14.504    -212.858     108.882
  N      -15.425    -212.938     107.874
  O      -10.750    -216.948     109.691
  O      -12.266    -215.133     110.705
  H      -14.696    -213.518     103.591
  H      -11.420    -214.676     110.896
  H      -18.966    -210.288     107.268
  H      -13.672    -213.520     108.975
  H      -16.504    -214.082     106.518
  H      -14.604    -212.266     105.474
  H      -12.738    -213.441     106.505
  H      -14.073    -216.026     105.459
  H      -13.072    -217.100     107.399
  H      -17.097    -208.788     111.082
  H      -15.705    -209.816     111.405
  H      -11.777    -216.355     106.439
  P      -11.036    -213.704     104.536
  C      -11.847    -211.275     104.001
  O      -10.935    -212.112     104.681
  O      -10.256    -214.301     103.408
  O      -10.580    -214.234     105.986
  H      -10.947    -213.742     106.735
  H      -11.718    -210.246     104.360
  H      -12.877    -211.579     104.197
  H      -11.654    -211.297     102.928
  H      -15.189    -217.582     110.443
  H      -14.836    -215.887     110.205
  H      -14.093    -216.758     111.525

 3  4  5  6  7  8  9  10  11  12  22  25  29  30  31  32 0
 6-311+G(2d,p)
 ****
 33  36  37 0
 6-311+G(2d,p)
 ****
 1  2  13  14  15  16  17  18  19  20  21  23  24  26 0
 3-21G
 ****
 27  28  34  35  38  39  40  41  42  43  44  45  46  47  48 0
 3-21G
 ****


