%nproc=1
%NoSave
%Mem=1900MB
#P OB98/GEN NMR

erre ene a

0 1
  C      -96.125     -34.097      65.869
  O      -95.836     -32.872      66.511
  H      -95.224     -34.439      65.353
  H      -96.917     -33.954      65.130
  H      -96.422     -34.857      66.596
  P      -96.944     -32.214      67.462
  C      -96.746     -33.605      69.627
  O      -96.432     -32.382      68.976
  C      -95.962     -33.739      70.936
  O      -94.582     -34.059      70.620
  C      -95.964     -32.466      71.789
  O      -96.027     -32.827      73.169
  C      -94.619     -31.836      71.482
  O      -94.157     -31.005      72.546
  C      -93.744     -33.064      71.240
  N      -88.774     -32.151      71.207
  C      -89.605     -32.522      72.245
  N      -89.033     -32.652      73.462
  N      -90.886     -32.743      72.106
  C      -91.319     -32.597      70.830
  C      -90.597     -32.234      69.716
  C      -89.184     -31.971      69.889
  O      -88.402     -31.625      69.010
  N      -91.398     -32.175      68.602
  C      -92.599     -32.500      69.042
  N      -92.606     -32.753      70.389
  O      -98.343     -32.686      67.221
  O      -96.804     -30.643      67.205
  H      -93.406     -30.480      72.193
  H      -97.537     -30.311      66.656
  H      -87.798     -31.982      71.371
  H      -93.492     -32.561      68.435
  H      -93.341     -33.481      72.171
  H      -94.696     -31.221      70.577
  H      -88.048     -32.521      73.636
  H      -96.796     -31.807      71.544
  H      -89.613     -32.953      74.235
  H      -96.366     -34.589      71.498
  H      -96.484     -34.429      68.955
  H      -97.823     -33.641      69.828
  P      -96.991     -31.998      74.147
  C      -98.880     -33.740      74.108
  O      -97.957     -33.026      74.917
  O      -97.684     -30.830      73.526
  O      -95.992     -31.520      75.308
  H      -96.271     -30.636      75.620
  H      -99.466     -34.390      74.724
  H      -98.346     -34.320      73.385
  H      -99.523     -33.048      73.606

 6  7  8  9  10  11  12  13  14  15  26  29  33  34 0
 6-311+G(2d,p)
 ****
 36  38  39  40  41 0
 6-311+G(2d,p)
 ****
 1  2  3  4  5  16  17  18  19  20  21  22  23  24  25 0
 3-21G
 ****
 27  28  30  31  32  35  37  42  43  44  45  46  47 0
 3-21G
 ****
 48  49 0
 3-21G
 ****


