%nproc=1
%NoSave
%Mem=1900MB
#P OB98/GEN NMR

erre ene a

0 1
  C      187.106     236.658     456.916
  O      188.043     235.603     456.851
  P      189.247     235.669     455.797
  C      188.183     233.461     455.007
  O      189.386     234.219     455.123
  C      188.503     232.000     454.695
  O      189.324     231.907     453.514
  C      189.290     231.288     455.793
  O      188.442     230.951     456.876
  C      189.857     230.102     455.031
  O      188.874     229.055     454.922
  C      190.138     230.717     453.652
  N      193.974     230.705     450.290
  C      192.737     230.169     450.249
  N      191.781     230.179     451.204
  C      192.227     230.812     452.302
  C      193.475     231.380     452.505
  C      194.375     231.331     451.425
  N      195.616     231.928     451.433
  N      193.560     231.908     453.784
  C      192.393     231.653     454.335
  N      191.531     231.057     453.456
  O      190.518     236.251     456.311
  O      188.657     236.563     454.606
  H      188.760     228.675     455.811
  H      189.209     237.360     454.499
  H      192.472     229.667     449.316
  H      192.117     231.899     455.352
  H      189.851     230.043     452.838
  H      190.735     229.673     455.513
  H      190.115     231.924     456.135
  H      187.559     231.477     454.497
  H      187.586     233.891     454.198
  H      196.114     231.961     450.558
  H      195.797     232.642     452.133
  H      187.617     233.533     455.941
  P      188.666     231.636     458.307
  C      188.796     229.505     459.729
  O      188.033     230.650     459.404
  O      188.240     233.063     458.413
  O      190.240     231.476     458.559
  H      190.560     232.234     459.083
  H      188.686     228.754     458.940
  H      188.425     229.090     460.668
  H      189.850     229.760     459.847
  H      186.379     236.444     457.671
  H      186.617     236.760     455.970
  H      187.612     237.570     457.156

 3  4  5  6  7  8  9  10  11  12  22  25  29  30  31  32 0
 6-311+G(2d,p)
 ****
 33  36  37 0
 6-311+G(2d,p)
 ****
 1  2  13  14  15  16  17  18  19  20  21  23  24  26 0
 3-21G
 ****
 27  28  34  35  38  39  40  41  42  43  44  45  46  47  48 0
 3-21G
 ****


