%nproc=1
%NoSave
%Mem=1900MB
#P OB98/GEN NMR

erre ene a

0 1
  C     -370.414    -167.244      88.967
  O     -371.234    -168.292      89.466
  P     -372.748    -167.942      89.877
  C     -373.481    -170.258      88.960
  O     -373.521    -169.345      90.047
  C     -374.309    -171.508      89.251
  O     -373.679    -172.244      90.345
  C     -375.759    -171.229      89.681
  O     -376.560    -172.315      89.188
  C     -375.694    -171.301      91.198
  O     -376.970    -171.550      91.777
  C     -374.682    -172.431      91.373
  N     -375.500    -172.878      96.407
  C     -376.332    -172.978      95.352
  N     -376.041    -172.851      94.032
  C     -374.734    -172.588      93.864
  C     -373.770    -172.424      94.847
  C     -374.193    -172.588      96.179
  N     -373.345    -172.499      97.261
  N     -372.545    -172.131      94.278
  C     -372.765    -172.125      92.977
  N     -374.062    -172.414      92.679
  O     -373.353    -167.346      88.518
  O     -372.896    -166.983      91.008
  H     -377.214    -172.484      91.611
  H     -373.528    -166.388      88.620
  H     -377.375    -173.195      95.584
  H     -372.015    -171.906      92.222
  H     -375.136    -173.427      91.224
  H     -375.314    -170.358      91.593
  H     -376.157    -170.270      89.320
  H     -374.287    -172.160      88.366
  H     -372.447    -170.558      88.787
  H     -373.694    -172.761      98.163
  H     -372.342    -172.469      97.085
  H     -373.854    -169.760      88.052
  P     -378.081    -171.973      88.785
  C     -378.154    -173.100      86.448
  O     -378.572    -173.142      87.810
  O     -377.926    -170.698      87.822
  O     -378.971    -171.682      89.952
  H     -378.736    -170.152      87.867
  H     -378.031    -174.130      86.093
  H     -377.205    -172.570      86.326
  H     -378.924    -172.603      85.850
  H     -369.442    -167.629      88.739
  H     -370.328    -166.475      89.706
  H     -370.854    -166.838      88.080

 3  4  5  6  7  8  9  10  11  12  22  25  29  30  31  32 0
 6-311+G(2d,p)
 ****
 33  36  37 0
 6-311+G(2d,p)
 ****
 1  2  13  14  15  16  17  18  19  20  21  23  24  26 0
 3-21G
 ****
 27  28  34  35  38  39  40  41  42  43  44  45  46  47  48 0
 3-21G
 ****


