%nproc=1
%NoSave
%Mem=1900MB
#P OB98/GEN NMR

erre ene a

0 1
  C      -88.077      89.756      53.256
  O      -86.819      90.401      53.320
  H      -88.799      90.442      52.804
  H      -88.428      89.484      54.254
  H      -88.006      88.862      52.630
  P      -85.660      89.712      54.192
  C      -85.271      89.315      56.711
  O      -86.188      89.753      55.712
  C      -85.954      89.190      58.072
  O      -86.982      88.176      58.037
  C      -85.026      88.761      59.199
  O      -84.039      89.707      59.541
  C      -86.012      88.297      60.259
  O      -86.538      89.381      61.025
  C      -87.129      87.675      59.385
  N      -87.115      86.216      59.423
  C      -88.087      85.617      60.214
  O      -88.910      86.249      60.876
  N      -88.065      84.249      60.252
  C      -87.157      83.445      59.627
  O      -87.179      82.223      59.718
  C      -86.128      84.137      58.834
  C      -86.154      85.472      58.767
  O      -84.286      90.286      54.011
  O      -85.766      88.162      53.814
  H      -86.839      90.058      60.389
  H      -84.955      87.670      54.094
  H      -88.772      83.794      60.810
  H      -85.384      83.533      58.335
  H      -85.406      86.006      58.186
  H      -88.116      88.012      59.734
  H      -85.561      87.592      60.961
  H      -84.480      87.866      58.871
  H      -86.439      90.145      58.299
  H      -84.469      90.059      56.777
  H      -84.839      88.353      56.414
  P      -82.649      89.330      60.227
  C      -81.869      88.019      62.351
  O      -82.949      88.567      61.604
  O      -81.592      90.386      60.223
  O      -82.137      88.123      59.281
  H      -81.161      88.183      59.242
  H      -82.248      87.550      63.235
  H      -81.192      88.801      62.625
  H      -81.355      87.294      61.755

 6  7  8  9  10  11  12  13  14  15  16  26  31  32  33  34  35 0
 6-311+G(2d,p)
 ****
 36  37 0
 6-311+G(2d,p)
 ****
 1  2  3  4  5  17  18  19  20  21  22  23  24  25 0
 3-21G
 ****
 27  28  29  30  38  39  40  41  42  43  44  45 0
 3-21G
 ****


