%nproc=1
%NoSave
%Mem=1900MB
#P OB98/GEN NMR

erre ene a

0 1
  C     -227.039     418.533      44.445
  O     -228.422     418.327      44.735
  P     -228.816     417.967      46.245
  C     -229.602     415.500      45.829
  O     -228.670     416.378      46.429
  C     -229.642     414.144      46.566
  O     -228.415     413.427      46.269
  C     -229.701     414.231      48.092
  O     -230.152     412.978      48.608
  C     -228.242     414.431      48.448
  O     -227.990     414.134      49.816
  C     -227.525     413.524      47.418
  N     -226.205     414.041      46.993
  C     -225.067     413.598      47.670
  O     -225.099     412.799      48.607
  N     -223.878     414.138      47.265
  C     -223.702     415.023      46.245
  O     -222.623     415.540      45.981
  C     -224.912     415.351      45.476
  C     -226.086     414.868      45.883
  O     -230.396     418.227      46.294
  O     -228.085     418.775      47.269
  H     -227.030     414.295      49.961
  H     -230.587     419.056      46.771
  H     -223.059     413.870      47.788
  H     -224.805     416.003      44.613
  H     -226.996     415.115      45.337
  H     -227.368     412.518      47.825
  H     -227.963     415.480      48.286
  H     -230.330     415.045      48.474
  H     -230.477     413.548      46.181
  H     -229.351     415.345      44.774
  H     -230.605     415.950      45.849
  P     -231.708     412.836      48.981
  C     -231.668     413.357      51.501
  O     -231.975     413.839      50.204
  O     -232.217     411.442      49.169
  O     -232.434     413.570      47.758
  H     -233.375     413.292      47.711
  H     -231.390     414.205      52.132
  H     -230.841     412.639      51.475
  H     -232.560     412.876      51.920
  H     -226.923     418.764      43.407
  H     -226.490     417.644      44.676
  H     -226.668     419.345      45.035

 3  4  5  6  7  8  9  10  11  12  13  23  28  29  30  31  32 0
 6-311+G(2d,p)
 ****
 33  34 0
 6-311+G(2d,p)
 ****
 1  2  14  15  16  17  18  19  20  21  22  24  25  26  27 0
 3-21G
 ****
 35  36  37  38  39  40  41  42  43  44  45 0
 3-21G
 ****


