%nproc=1
%NoSave
%Mem=1900MB
#P OB98/GEN NMR

erre ene a

0 1
  C       -9.007     510.472     730.362
  O       -9.477     510.168     729.059
  P      -10.933     510.728     728.663
  C      -10.012     510.976     726.233
  O      -11.067     510.555     727.080
  C      -10.457     510.875     724.768
  O      -11.597     511.713     724.537
  C       -9.395     511.308     723.763
  O       -8.470     510.265     723.530
  C      -10.248     511.665     722.554
  O      -10.609     510.481     721.813
  C      -11.487     512.301     723.208
  N      -11.216     516.607     720.567
  C      -11.089     515.286     720.145
  N      -10.909     515.101     718.819
  N      -11.141     514.256     720.958
  C      -11.310     514.600     722.247
  C      -11.430     515.867     722.790
  C      -11.429     516.989     721.882
  O      -11.635     518.160     722.189
  N      -11.563     515.818     724.146
  C      -11.556     514.517     724.433
  N      -11.425     513.745     723.306
  O      -10.781     512.302     728.867
  O      -12.072     510.152     729.448
  H       -9.829     509.913     721.703
  H      -11.142     512.581     729.738
  H      -11.186     517.357     719.902
  H      -11.662     514.104     725.414
  H      -12.407     512.059     722.663
  H       -9.721     512.314     721.850
  H      -10.849     515.841     718.138
  H       -8.868     512.208     724.116
  H      -10.809     514.150     718.491
  H      -10.752     509.829     724.573
  H       -9.146     510.326     726.391
  H       -9.739     512.002     726.480
  P       -7.056     510.648     722.868
  C       -6.549     508.155     723.341
  O       -6.286     509.285     722.542
  O       -6.237     511.281     724.092
  O       -7.153     511.619     721.734
  H       -5.675     512.011     723.762
  H       -6.410     507.250     722.735
  H       -7.569     508.162     723.746
  H       -5.840     508.131     724.177
  H       -8.035     510.046     730.499
  H       -9.680     510.066     731.088
  H       -8.951     511.534     730.482

 3  4  5  6  7  8  9  10  11  12  23  26  30  31 0
 6-311+G(2d,p)
 ****
 33  35  36  37  38 0
 6-311+G(2d,p)
 ****
 1  2  13  14  15  16  17  18  19  20  21  22  24  25 0
 3-21G
 ****
 27  28  29  32  34  39  40  41  42  43  44  45  46  47  48  49 0
 3-21G
 ****


