%nproc=1
%NoSave
%Mem=1900MB
#P OB98/GEN NMR

erre ene a

0 1
  C     -269.142     308.818     341.862
  O     -269.266     309.933     340.992
  P     -270.198     309.758     339.702
  C     -268.233     310.395     338.111
  O     -269.230     309.439     338.466
  C     -267.543     309.980     336.816
  O     -266.885     308.709     336.991
  C     -268.483     309.793     335.632
  O     -268.889     311.042     335.099
  C     -267.591     308.973     334.702
  O     -266.644     309.819     334.028
  C     -266.865     308.044     335.697
  N     -266.839     303.209     334.013
  C     -266.104     304.290     333.662
  N     -266.183     305.548     334.135
  C     -267.140     305.640     335.080
  C     -267.983     304.633     335.527
  C     -267.797     303.365     334.952
  N     -268.552     302.264     335.306
  N     -268.853     305.102     336.482
  C     -268.533     306.371     336.629
  N     -267.493     306.745     335.813
  O     -270.702     311.250     339.406
  O     -271.347     308.812     339.877
  H     -267.109     310.230     333.273
  H     -271.610     311.248     339.041
  H     -265.348     304.125     332.896
  H     -269.015     307.067     337.308
  H     -265.813     307.881     335.424
  H     -268.156     308.435     333.925
  H     -269.359     309.214     335.924
  H     -266.778     310.734     336.582
  H     -267.485     310.452     338.910
  H     -268.463     301.435     334.745
  H     -269.359     302.414     335.906
  H     -268.703     311.378     338.014
  P     -269.980     311.023     333.922
  C     -268.418     312.626     332.646
  O     -269.127     311.399     332.614
  O     -270.795     312.373     334.211
  O     -270.796     309.781     333.844
  H     -270.200     313.126     334.348
  H     -267.845     312.731     331.725
  H     -267.728     312.636     333.492
  H     -269.126     313.460     332.726
  H     -268.495     309.071     342.676
  H     -268.731     307.990     341.324
  H     -270.107     308.553     342.242

 3  4  5  6  7  8  9  10  11  12  22  25  29  30  31  32 0
 6-311+G(2d,p)
 ****
 33  36  37 0
 6-311+G(2d,p)
 ****
 1  2  13  14  15  16  17  18  19  20  21  23  24  26 0
 3-21G
 ****
 27  28  34  35  38  39  40  41  42  43  44  45  46  47  48 0
 3-21G
 ****


