%nproc=1
%NoSave
%Mem=1900MB
#P OB98/GEN NMR

erre ene a

0 1
  C      -76.353    -121.258    -188.140
  O      -77.570    -120.830    -188.726
  P      -78.422    -119.700    -187.979
  C      -77.902    -117.763    -189.635
  O      -77.757    -118.280    -188.322
  C      -78.132    -116.252    -189.591
  O      -78.240    -115.740    -190.953
  C      -79.408    -115.836    -188.845
  O      -79.143    -114.581    -188.201
  C      -80.397    -115.629    -189.976
  O      -81.508    -114.827    -189.608
  C      -79.476    -115.001    -191.027
  N      -80.044    -115.033    -192.373
  C      -81.251    -114.370    -192.574
  O      -81.860    -113.770    -191.691
  N      -81.786    -114.473    -193.829
  C      -81.292    -115.226    -194.855
  O      -81.881    -115.369    -195.919
  C      -80.014    -115.903    -194.586
  C      -79.458    -115.776    -193.379
  O      -78.060    -119.926    -186.437
  O      -79.893    -119.764    -188.222
  H      -82.198    -114.954    -190.284
  H      -78.771    -120.421    -185.989
  H      -82.655    -113.991    -193.996
  H      -79.583    -116.492    -195.385
  H      -78.526    -116.283    -193.147
  H      -79.245    -113.963    -190.755
  H      -80.779    -116.600    -190.308
  H      -79.750    -116.574    -188.112
  H      -77.253    -115.778    -189.136
  H      -78.758    -118.243    -190.116
  H      -77.010    -118.002    -190.225
  P      -79.650    -114.389    -186.689
  C      -77.665    -115.730    -185.645
  O      -79.057    -115.614    -185.846
  O      -81.205    -114.747    -186.848
  O      -79.404    -113.021    -186.142
  H      -81.354    -115.525    -187.411
  H      -77.188    -114.751    -185.551
  H      -77.221    -116.269    -186.485
  H      -77.487    -116.298    -184.728
  H      -75.906    -122.011    -188.755
  H      -76.547    -121.661    -187.168
  H      -75.686    -120.426    -188.054

 3  4  5  6  7  8  9  10  11  12  13  23  28  29  30  31  32 0
 6-311+G(2d,p)
 ****
 33  34 0
 6-311+G(2d,p)
 ****
 1  2  14  15  16  17  18  19  20  21  22  24  25  26 0
 3-21G
 ****
 27  35  36  37  38  39  40  41  42  43  44  45 0
 3-21G
 ****


