%nproc=1
%NoSave
%Mem=1900MB
#P OB98/GEN NMR

erre ene a

0 1
  C      -76.667      16.256      59.000
  O      -77.192      17.487      58.539
  H      -77.472      15.516      59.019
  H      -76.265      16.362      60.012
  H      -75.882      15.901      58.325
  P      -76.224      18.760      58.494
  C      -76.574      19.268      61.009
  O      -75.647      18.942      59.979
  C      -76.212      20.604      61.656
  O      -77.353      21.150      62.346
  C      -75.102      20.508      62.697
  O      -73.843      20.360      62.070
  C      -75.307      21.818      63.443
  O      -74.758      22.924      62.708
  C      -76.855      21.903      63.482
  N      -77.436      21.408      64.727
  C      -77.887      22.387      65.624
  O      -77.770      23.582      65.350
  N      -78.442      21.973      66.811
  C      -78.576      20.710      67.065
  N      -79.137      20.371      68.256
  C      -78.148      19.651      66.131
  C      -77.582      20.067      64.998
  O      -76.802      20.009      57.898
  O      -74.951      18.250      57.671
  H      -74.741      23.680      63.328
  H      -75.043      18.472      56.724
  H      -78.288      18.605      66.379
  H      -77.235      19.353      64.256
  H      -77.187      22.941      63.342
  H      -74.830      21.815      64.427
  H      -75.299      19.683      63.389
  H      -75.942      21.306      60.856
  H      -79.433      21.133      68.857
  H      -76.529      18.465      61.751
  H      -79.438      19.434      68.487
  H      -77.595      19.308      60.608
  P      -72.853      19.159      62.457
  C      -71.556      20.748      64.012
  O      -72.270      19.524      63.909
  O      -71.820      18.833      61.430
  O      -73.840      17.942      62.779
  H      -74.182      17.541      61.940
  H      -71.219      20.881      65.019
  H      -72.198      21.560      63.741
  H      -70.713      20.725      63.354

 6  7  8  9  10  11  12  13  14  15  16  26  30  31  32  33  35 0
 6-311+G(2d,p)
 ****
 37  38 0
 6-311+G(2d,p)
 ****
 1  2  3  4  5  17  18  19  20  21  22  23  24  25 0
 3-21G
 ****
 27  28  29  34  36  39  40  41  42  43  44  45  46 0
 3-21G
 ****


