%nproc=1
%NoSave
%Mem=1900MB
#P OB98/GEN NMR

erre ene a

0 1
  C     -554.901     658.296     526.990
  O     -555.601     657.890     525.826
  H     -555.607     658.766     527.678
  H     -554.131     659.026     526.724
  H     -554.445     657.435     527.484
  P     -554.775     657.016     524.761
  C     -554.553     654.508     525.505
  O     -555.336     655.520     524.903
  C     -554.636     653.206     524.711
  O     -553.741     652.231     525.303
  C     -556.042     652.592     524.681
  O     -556.246     651.985     523.405
  C     -555.972     651.516     525.753
  O     -556.954     650.500     525.551
  C     -554.513     651.052     525.619
  N     -554.025     650.396     526.830
  C     -553.853     649.010     526.760
  O     -554.117     648.398     525.725
  N     -553.417     648.341     527.879
  C     -553.240     648.988     528.987
  N     -552.833     648.266     530.067
  C     -553.453     650.443     529.117
  C     -553.830     651.082     528.012
  O     -553.329     656.950     525.439
  O     -554.779     657.570     523.374
  H     -556.789     650.075     524.682
  H     -553.358     656.762     526.396
  H     -553.302     650.940     530.070
  H     -554.003     652.148     528.010
  H     -554.411     650.354     524.779
  H     -556.147     651.956     526.740
  H     -556.826     653.330     524.869
  H     -554.272     653.400     523.694
  H     -552.721     647.261     529.943
  H     -554.885     654.328     526.536
  H     -552.719     648.654     530.993
  H     -553.512     654.863     525.544
  P     -557.305     652.617     522.386
  C     -556.490     654.851     521.363
  O     -556.523     653.433     521.251
  O     -558.451     653.332     523.007
  O     -557.829     651.327     521.579
  H     -558.797     651.427     521.462
  H     -555.938     655.261     520.543
  H     -556.018     655.125     522.283
  H     -557.489     655.233     521.347

 6  7  8  9  10  11  12  13  14  15  16  26  30  31  32  33  35 0
 6-311+G(2d,p)
 ****
 37  38 0
 6-311+G(2d,p)
 ****
 1  2  3  4  5  17  18  19  20  21  22  23  24  25 0
 3-21G
 ****
 27  28  29  34  36  39  40  41  42  43  44  45  46 0
 3-21G
 ****


