%nproc=1
%NoSave
%Mem=1900MB
#P OB98/GEN NMR

erre ene a

0 1
  C     -103.237     304.699    -206.264
  O     -102.140     304.414    -207.107
  H     -103.812     305.520    -206.703
  H     -102.888     305.007    -205.274
  H     -103.882     303.821    -206.178
  P     -101.099     303.307    -206.595
  C      -99.345     305.220    -206.442
  O      -99.933     304.084    -205.819
  C      -98.616     306.056    -205.397
  O      -99.549     306.482    -204.369
  C      -97.519     305.306    -204.653
  O      -96.323     305.206    -205.408
  C      -97.354     306.178    -203.421
  O      -96.478     307.288    -203.668
  C      -98.794     306.659    -203.155
  N      -99.401     305.955    -202.029
  C      -98.922     306.310    -200.772
  O      -98.045     307.158    -200.589
  N      -99.454     305.621    -199.712
  C     -100.359     304.605    -199.794
  O     -100.756     303.990    -198.809
  C     -100.818     304.260    -201.154
  C     -100.321     304.935    -202.191
  O     -100.399     302.814    -207.945
  O     -101.711     302.175    -205.838
  H     -100.725     301.927    -208.183
  H      -95.569     306.924    -203.636
  H      -99.121     305.866    -198.793
  H     -101.534     303.457    -201.253
  H     -100.633     304.695    -203.201
  H      -98.804     307.733    -202.933
  H      -96.933     305.610    -202.595
  H      -97.879     304.316    -204.347
  H      -98.209     306.952    -205.886
  H     -100.129     305.833    -206.907
  H      -98.659     304.881    -207.224
  P      -95.364     303.947    -205.123
  C      -93.518     305.213    -206.510
  O      -93.869     304.480    -205.347
  O      -95.674     303.048    -206.411
  O      -95.632     303.293    -203.810
  H      -95.955     303.586    -207.170
  H      -92.481     305.474    -206.468
  H      -94.109     306.104    -206.562
  H      -93.699     304.614    -207.378

 6  7  8  9  10  11  12  13  14  15  16  27  31  32  33  34  35 0
 6-311+G(2d,p)
 ****
 36  37 0
 6-311+G(2d,p)
 ****
 1  2  3  4  5  17  18  19  20  21  22  23  24  25 0
 3-21G
 ****
 26  28  29  30  38  39  40  41  42  43  44  45 0
 3-21G
 ****


