%nproc=1
%NoSave
%Mem=1900MB
#P OB98/GEN NMR

erre ene a

0 1
  C     -591.914     -48.437    -867.970
  O     -592.108     -49.791    -868.338
  H     -591.203     -48.400    -867.141
  H     -592.863     -48.002    -867.643
  H     -591.514     -47.872    -868.812
  P     -593.119     -50.072    -869.560
  C     -591.942     -52.220    -870.446
  O     -593.094     -51.650    -869.820
  C     -591.515     -53.473    -869.685
  O     -591.107     -53.114    -868.338
  C     -592.623     -54.504    -869.516
  O     -592.839     -55.269    -870.688
  C     -592.088     -55.320    -868.352
  O     -591.156     -56.310    -868.782
  C     -591.374     -54.263    -867.494
  N     -592.917     -55.596    -862.811
  C     -592.040     -56.164    -863.667
  N     -591.681     -55.734    -864.896
  C     -592.288     -54.581    -865.197
  C     -593.202     -53.880    -864.418
  C     -593.517     -54.423    -863.161
  N     -594.411     -53.864    -862.294
  N     -593.646     -52.762    -865.087
  C     -593.012     -52.772    -866.236
  N     -592.176     -53.847    -866.349
  O     -592.326     -49.463    -870.819
  O     -594.473     -49.464    -869.408
  H     -591.685     -57.041    -869.163
  H     -592.682     -48.580    -871.027
  H     -591.593     -57.090    -863.338
  H     -593.120     -52.024    -867.033
  H     -590.412     -54.614    -867.114
  H     -592.903     -55.829    -867.827
  H     -593.554     -54.000    -869.202
  H     -590.643     -53.920    -870.198
  H     -591.124     -51.493    -870.432
  H     -592.185     -52.459    -871.487
  H     -594.643     -54.354    -861.440
  H     -594.952     -53.067    -862.604
  P     -594.146     -56.200    -870.737
  C     -592.837     -57.792    -872.343
  O     -593.666     -57.664    -871.199
  O     -594.964     -55.647    -872.006
  O     -594.961     -56.182    -869.493
  H     -595.924     -55.716    -871.833
  H     -592.613     -58.825    -872.508
  H     -591.927     -57.251    -872.187
  H     -593.345     -57.396    -873.198

 6  7  8  9  10  11  12  13  14  15  25  28  32  33  34  35 0
 6-311+G(2d,p)
 ****
 36  37  40 0
 6-311+G(2d,p)
 ****
 1  2  3  4  5  16  17  18  19  20  21  22  23  24 0
 3-21G
 ****
 26  27  29  30  31  38  39 41  42  43  44  45  46  47  48 0
 3-21G
 ****


