%nproc=1
%NoSave
%Mem=1900MB
#P OB98/GEN NMR

erre ene a

0 1
  C      431.336    -945.420     923.414
  O      432.219    -946.498     923.649
  H      431.659    -944.887     922.515
  H      431.359    -944.728     924.255
  H      430.325    -945.790     923.256
  P      431.989    -947.355     924.988
  C      432.326    -949.852     925.640
  O      432.656    -948.790     924.744
  C      433.387    -950.949     925.537
  O      433.379    -951.518     924.215
  C      434.808    -950.451     925.759
  O      435.117    -950.280     927.127
  C      435.601    -951.592     925.130
  O      435.797    -952.679     926.046
  C      434.700    -952.014     923.952
  N      435.226    -951.540     922.680
  C      436.327    -952.245     922.165
  O      436.834    -953.195     922.752
  N      436.838    -951.778     920.999
  C      436.411    -950.672     920.306
  O      436.964    -950.272     919.283
  C      435.266    -949.961     920.889
  C      434.732    -950.413     922.027
  O      430.422    -947.653     924.955
  O      432.407    -946.678     926.245
  H      429.960    -947.097     925.620
  H      436.239    -953.391     925.524
  H      437.640    -952.268     920.613
  H      434.895    -949.082     920.379
  H      433.879    -949.906     922.494
  H      434.640    -953.117     923.905
  H      436.587    -951.243     924.812
  H      434.980    -949.534     925.179
  H      433.139    -951.740     926.259
  H      431.350    -950.276     925.361
  H      432.257    -949.451     926.656
  P      436.338    -949.282     927.495
  C      437.006    -948.133     929.763
  O      435.989    -948.674     928.940
  O      436.059    -948.090     926.478
  O      437.683    -949.928     927.365
  H      435.108    -948.017     926.239
  H      436.576    -947.782     930.677
  H      437.480    -947.319     929.256
  H      437.731    -948.890     929.978

 6  7  8  9  10  11  12  13  14  15  16  27  31  32  33  34  35 0
 6-311+G(2d,p)
 ****
 36  37 0
 6-311+G(2d,p)
 ****
 1  2  3  4  5  17  18  19  20  21  22  23  24  25 0
 3-21G
 ****
 26  28  29  30  38  39  40  41  42  43  44  45 0
 3-21G
 ****


