%nproc=1
%NoSave
%Mem=1900MB
#P OB98/GEN NMR

erre ene a

0 1
  C      181.619     -98.728     533.544
  O      181.943     -99.976     534.126
  H      182.513     -98.320     533.066
  H      181.285     -98.029     534.317
  H      180.839     -98.843     532.785
  P      180.768    -100.863     534.758
  C      179.434    -100.895     536.967
  O      180.458    -100.258     536.210
  C      179.211    -100.134     538.274
  O      178.351     -98.996     538.051
  C      178.531    -100.962     539.356
  O      179.439    -101.867     539.956
  C      178.023     -99.866     540.281
  O      179.072     -99.394     541.139
  C      177.604     -98.775     539.271
  N      176.164     -98.761     539.011
  C      175.409     -97.868     539.768
  O      175.895     -97.140     540.638
  N      174.063     -97.857     539.512
  C      173.403     -98.712     538.674
  O      172.180     -98.721     538.550
  C      174.246     -99.648     537.921
  C      175.566     -99.633     538.120
  O      180.983    -102.338     534.723
  O      179.476    -100.439     533.911
  H      178.658     -98.754     541.751
  H      179.258    -101.150     533.279
  H      173.499     -97.228     540.057
  H      173.760    -100.334     537.239
  H      176.203    -100.320     537.580
  H      177.898     -97.782     539.636
  H      177.210    -100.208     540.919
  H      177.668    -101.496     538.936
  H      180.183     -99.757     538.626
  H      179.749    -101.920     537.191
  H      178.516    -100.928     536.370
  P      178.890    -103.008     540.940
  C      177.451    -103.146     543.063
  O      178.088    -102.284     542.128
  O      179.910    -104.009     541.383
  O      177.729    -103.715     540.095
  H      177.951    -104.657     539.968
  H      176.951    -102.560     543.805
  H      178.185    -103.766     543.534
  H      176.738    -103.760     542.554

 6  7  8  9  10  11  12  13  14  15  16  26  31  32  33  34  35 0
 6-311+G(2d,p)
 ****
 36  37 0
 6-311+G(2d,p)
 ****
 1  2  3  4  5  17  18  19  20  21  22  23  24  25 0
 3-21G
 ****
 27  28  29  30  38  39  40  41  42  43  44  45 0
 3-21G
 ****


