%nproc=1
%NoSave
%Mem=1900MB
#P OB98/GEN NMR

erre ene a

0 1
  C       45.812    -121.228    -154.659
  O       47.049    -120.545    -154.676
  H       45.489    -121.339    -153.621
  H       45.924    -122.224    -155.095
  H       45.049    -120.668    -155.205
  P       47.673    -120.116    -156.088
  C       47.808    -117.583    -155.625
  O       47.188    -118.617    -156.377
  C       48.729    -116.764    -156.528
  O       47.957    -116.088    -157.544
  C       49.497    -115.671    -155.797
  O       50.578    -116.210    -155.062
  C       49.897    -114.777    -156.959
  O       51.054    -115.297    -157.631
  C       48.648    -114.859    -157.862
  N       47.764    -113.703    -157.716
  C       47.699    -112.831    -158.797
  O       48.361    -112.976    -159.824
  N       46.860    -111.758    -158.649
  C       46.188    -111.420    -157.510
  O       45.520    -110.397    -157.400
  C       46.314    -112.363    -156.392
  C       47.082    -113.445    -156.544
  O       47.459    -121.077    -157.209
  O       49.233    -119.931    -155.769
  H       51.238    -114.687    -158.372
  H       49.729    -120.691    -156.126
  H       46.811    -111.108    -159.416
  H       45.783    -112.137    -155.477
  H       47.191    -114.148    -155.727
  H       48.945    -114.930    -158.916
  H       50.143    -113.766    -156.636
  H       48.821    -115.113    -155.138
  H       49.418    -117.456    -157.032
  H       48.397    -118.036    -154.820
  H       47.031    -116.949    -155.183
  P       50.842    -115.724    -153.559
  C       49.808    -117.709    -152.298
  O       49.681    -116.333    -152.637
  O       51.081    -114.260    -153.394
  O       52.130    -116.561    -153.110
  H       52.854    -115.946    -152.887
  H       48.982    -118.003    -151.685
  H       50.722    -117.862    -151.763
  H       49.816    -118.297    -153.192

 6  7  8  9  10  11  12  13  14  15  16  26  31  32  33  34  35 0
 6-311+G(2d,p)
 ****
 36  37 0
 6-311+G(2d,p)
 ****
 1  2  3  4  5  17  18  19  20  21  22  23  24  25 0
 3-21G
 ****
 27  28  29  30  38  39  40  41  42  43  44  45 0
 3-21G
 ****


