%nproc=1
%NoSave
%Mem=1900MB
#P OB98/GEN NMR

erre ene a

0 1
  C     -130.392     454.059    -225.973
  O     -130.105     454.160    -224.574
  P     -130.666     453.004    -223.610
  C     -128.576     451.456    -223.595
  O     -129.935     451.621    -223.990
  C     -128.069     450.046    -223.931
  O     -128.762     449.045    -223.122
  C     -128.274     449.642    -225.397
  O     -127.229     448.744    -225.770
  C     -129.580     448.881    -225.351
  O     -129.759     448.060    -226.512
  C     -129.421     448.134    -224.027
  N     -132.905     444.489    -224.156
  C     -131.742     444.638    -224.885
  N     -131.444     443.639    -225.756
  N     -130.936     445.658    -224.778
  C     -131.339     446.549    -223.840
  C     -132.477     446.526    -223.063
  C     -133.371     445.390    -223.219
  O     -134.421     445.222    -222.611
  N     -132.558     447.637    -222.248
  C     -131.477     448.329    -222.548
  N     -130.694     447.700    -223.480
  O     -132.159     452.791    -224.150
  O     -130.655     453.362    -222.162
  H     -130.494     447.436    -226.314
  H     -132.791     453.145    -223.497
  H     -133.494     443.677    -224.293
  H     -131.216     449.283    -222.125
  H     -128.792     447.237    -224.127
  H     -130.427     449.587    -225.301
  H     -131.987     442.795    -225.854
  H     -128.299     450.478    -226.097
  H     -130.585     443.701    -226.271
  H     -126.999     449.989    -223.675
  H     -128.471     451.633    -222.523
  H     -127.969     452.221    -224.088
  P     -125.957     449.372    -226.513
  C     -124.664     449.820    -224.310
  O     -125.270     450.371    -225.461
  O     -126.600     450.354    -227.593
  O     -125.039     448.361    -227.140
  H     -125.989     450.485    -228.334
  H     -123.578     449.826    -224.437
  H     -124.994     448.796    -224.113
  H     -124.918     450.443    -223.437
  H     -129.959     454.892    -226.487
  H     -131.452     454.061    -226.121
  H     -129.980     453.149    -226.357

 3  4  5  6  7  8  9  10  11  12  23  26  30  31 0
 6-311+G(2d,p)
 ****
 33  35  36  37  38 0
 6-311+G(2d,p)
 ****
 1  2  13  14  15  16  17  18  19  20  21  22  24  25 0
 3-21G
 ****
 27  28  29  32  34  39  40  41  42  43  44  45  46  47  48  49 0
 3-21G
 ****


