%nproc=1
%NoSave
%Mem=1900MB
#P OB98/GEN NMR

erre ene a

0 1
  C      -21.740    -106.340    -170.622
  O      -20.688    -105.376    -170.682
  P      -20.096    -104.944    -172.105
  C      -19.706    -102.427    -171.655
  O      -19.112    -103.694    -171.913
  C      -18.622    -101.350    -171.552
  O      -17.890    -101.451    -170.307
  C      -17.559    -101.473    -172.637
  O      -17.958    -101.169    -173.956
  C      -16.409    -100.669    -172.054
  O      -16.568     -99.272    -172.298
  C      -16.548    -100.977    -170.545
  N      -15.552    -101.939    -170.072
  C      -14.491    -101.412    -169.344
  O      -14.346    -100.210    -169.133
  N      -13.569    -102.319    -168.892
  C      -13.588    -103.663    -169.123
  O      -12.724    -104.428    -168.714
  C      -14.722    -104.158    -169.919
  C      -15.638    -103.289    -170.350
  O      -21.092    -104.807    -173.206
  O      -19.069    -106.137    -172.434
  H      -17.433     -99.008    -171.930
  H      -19.154    -106.350    -173.384
  H      -12.797    -101.956    -168.356
  H      -14.767    -105.219    -170.126
  H      -16.482    -103.633    -170.938
  H      -16.430    -100.059    -169.955
  H      -15.450    -100.963    -172.492
  H      -17.228    -102.521    -172.664
  H      -19.102    -100.370    -171.572
  H      -20.285    -102.471    -170.730
  H      -20.418    -102.199    -172.455
  P      -17.615    -102.101    -175.215
  C      -19.099    -100.780    -176.880
  O      -17.806    -101.237    -176.551
  O      -18.166    -103.488    -175.212
  O      -16.012    -102.190    -175.112
  H      -15.732    -103.067    -175.436
  H      -19.045    -100.228    -177.821
  H      -19.477    -100.110    -176.103
  H      -19.782    -101.624    -177.007
  H      -22.011    -106.509    -169.601
  H      -21.408    -107.258    -171.059
  H      -22.589    -105.975    -171.161

 3  4  5  6  7  8  9  10  11  12  13  23  28  29  30  31  32 0
 6-311+G(2d,p)
 ****
 33  34 0
 6-311+G(2d,p)
 ****
 1  2  14  15  16  17  18  19  20  21  22  24  25  26  27 0
 3-21G
 ****
 35  36  37  38  39  40  41  42  43  44  45 0
 3-21G
 ****


