%nproc=1
%NoSave
%Mem=1900MB
#P OB98/GEN NMR

erre ene a

0 1
  C       58.850      76.925     410.106
  O       57.501      77.264     409.852
  H       59.398      77.836     410.357
  H       59.303      76.474     409.217
  H       58.909      76.232     410.949
  P       56.529      76.068     409.406
  C       56.430      76.958     406.988
  O       56.819      75.882     407.834
  C       57.002      76.764     405.584
  O       56.586      77.885     404.758
  C       58.533      76.705     405.547
  O       58.942      75.779     404.539
  C       58.922      78.112     405.122
  O       60.219      78.158     404.529
  C       57.771      78.464     404.182
  N       59.973      82.644     402.276
  C       60.245      81.329     402.127
  N       59.592      80.275     402.656
  C       58.515      80.688     403.359
  C       58.112      81.988     403.600
  C       58.901      83.004     403.025
  N       58.653      84.345     403.198
  N       56.990      82.004     404.403
  C       56.716      80.732     404.639
  N       57.627      79.901     404.044
  O       55.093      76.231     409.774
  O       57.261      74.794     410.041
  H       60.456      79.095     404.373
  H       58.221      74.807     409.865
  H       61.110      81.094     401.511
  H       55.890      80.369     405.241
  H       57.907      78.052     403.171
  H       58.931      78.775     405.994
  H       58.974      76.429     406.506
  H       56.556      75.864     405.141
  H       56.785      77.908     407.401
  H       59.270      85.003     402.750
  H       57.857      84.634     403.749
  H       55.332      76.981     406.955
  P       59.357      74.289     404.971
  C       61.853      74.680     405.500
  O       60.568      74.383     406.027
  O       59.571      73.327     403.853
  O       58.130      73.833     405.897
  H       57.903      72.905     405.691
  H       62.566      74.714     406.297
  H       61.825      75.628     405.005
  H       62.136      73.921     404.801

 6  7  8  9  10  11  12  13  14  15  25  28  32  33  34  35 0
 6-311+G(2d,p)
 ****
 36  39  40 0
 6-311+G(2d,p)
 ****
 1  2  3  4  5  16  17  18  19  20  21  22  23  24 0
 3-21G
 ****
 26  27  29  30  31  37  38  41  42  43  44  45  46  47 0
 3-21G
 ****
 48 0
 3-21G
 ****


