%nproc=1
%NoSave
%Mem=1900MB
#P OB98/GEN NMR

erre ene a

0 1
  C     -150.492    -122.206    -275.909
  O     -150.549    -123.265    -274.979
  H     -150.834    -121.292    -275.412
  H     -151.152    -122.403    -276.756
  H     -149.466    -122.051    -276.256
  P     -150.140    -124.744    -275.453
  C     -152.451    -125.867    -275.492
  O     -151.413    -125.294    -276.277
  C     -153.670    -126.204    -276.352
  O     -153.296    -127.177    -277.365
  C     -154.847    -126.791    -275.555
  O     -156.061    -126.139    -275.939
  C     -154.887    -128.246    -276.000
  O     -156.171    -128.841    -275.841
  C     -154.380    -128.122    -277.441
  N     -153.963    -129.408    -277.986
  C     -154.989    -130.320    -278.258
  O     -156.165    -130.022    -278.040
  N     -154.654    -131.571    -278.713
  C     -153.405    -131.894    -278.842
  N     -153.143    -133.162    -279.274
  C     -152.292    -130.973    -278.543
  C     -152.639    -129.755    -278.123
  O     -149.664    -125.640    -274.356
  O     -149.048    -124.523    -276.600
  H     -156.814    -128.345    -276.397
  H     -148.504    -125.341    -276.688
  H     -151.269    -131.297    -278.663
  H     -151.892    -129.006    -277.880
  H     -155.157    -127.698    -278.094
  H     -154.171    -128.824    -275.401
  H     -154.722    -126.705    -274.478
  H     -153.971    -125.299    -276.898
  H     -153.937    -133.766    -279.463
  H     -152.723    -125.159    -274.702
  H     -152.212    -133.533    -279.388
  H     -152.071    -126.788    -275.035
  P     -156.725    -125.175    -274.838
  C     -158.444    -126.874    -273.887
  O     -157.282    -126.095    -273.648
  O     -158.049    -124.641    -275.568
  O     -155.838    -124.052    -274.419
  H     -157.947    -123.693    -275.781
  H     -158.689    -127.429    -273.005
  H     -158.260    -127.551    -274.695
  H     -159.259    -126.229    -274.141

 6  7  8  9  10  11  12  13  14  15  16  26  30  31  32  33  35 0
 6-311+G(2d,p)
 ****
 37  38 0
 6-311+G(2d,p)
 ****
 1  2  3  4  5  17  18  19  20  21  22  23  24  25 0
 3-21G
 ****
 27  28  29  34  36  39  40  41  42  43  44  45  46 0
 3-21G
 ****


