%nproc=1
%NoSave
%Mem=1900MB
#P OB98/GEN NMR

erre ene a

0 1
  C     -220.993    1353.953    -242.418
  O     -220.234    1354.106    -241.238
  H     -220.382    1353.514    -243.215
  H     -221.834    1353.286    -242.216
  H     -221.380    1354.929    -242.748
  P     -218.888    1354.967    -241.365
  C     -217.200    1353.611    -239.936
  O     -218.067    1354.731    -240.005
  C     -216.416    1353.619    -238.630
  O     -215.418    1354.665    -238.641
  C     -217.257    1353.889    -237.382
  O     -217.962    1352.735    -236.957
  C     -216.168    1354.290    -236.390
  O     -215.532    1353.102    -235.858
  C     -215.182    1355.063    -237.259
  N     -213.121    1359.370    -235.378
  C     -212.731    1358.065    -235.297
  N     -213.332    1356.984    -235.807
  C     -214.436    1357.328    -236.486
  C     -214.956    1358.598    -236.663
  C     -214.254    1359.657    -236.059
  N     -214.650    1360.975    -236.137
  N     -216.099    1358.574    -237.430
  C     -216.275    1357.303    -237.726
  N     -215.303    1356.504    -237.166
  O     -219.391    1356.478    -241.233
  O     -218.104    1354.753    -242.621
  H     -216.205    1352.660    -235.291
  H     -218.849    1357.049    -241.819
  H     -211.809    1357.895    -234.729
  H     -217.083    1356.905    -238.324
  H     -214.141    1354.791    -237.036
  H     -216.551    1354.857    -235.532
  H     -217.939    1354.748    -237.543
  H     -215.896    1352.659    -238.529
  H     -216.490    1353.642    -240.770
  H     -214.006    1361.697    -235.861
  H     -215.508    1361.181    -236.663
  H     -217.796    1352.705    -240.014
  P     -219.567    1352.775    -237.032
  C     -219.369    1350.661    -235.540
  O     -220.056    1351.310    -236.616
  O     -219.847    1352.820    -238.610
  O     -220.211    1353.921    -236.328
  H     -220.715    1353.233    -238.791
  H     -219.799    1349.696    -235.373
  H     -219.460    1351.251    -234.652
  H     -218.335    1350.552    -235.792

 6  7  8  9  10  11  12  13  14  15  25  28  32  33  34  35 0
 6-311+G(2d,p)
 ****
 36  39  40 0
 6-311+G(2d,p)
 ****
 1  2  3  4  5  16  17  18  19  20  21  22  23  24 0
 3-21G
 ****
 26  27  29  30  31  37  38  41  42  43  44  45  46  47  48 0
 3-21G
 ****


