%nproc=1
%NoSave
%Mem=1900MB
#P OB98/GEN NMR

erre ene a

0 1
  C     -497.964    -193.758      49.100
  O     -496.670    -193.327      49.479
  H     -497.984    -194.844      48.978
  H     -498.670    -193.479      49.887
  H     -498.261    -193.273      48.168
  P     -495.468    -193.745      48.502
  C     -493.979    -195.443      49.783
  O     -495.066    -195.252      48.883
  C     -494.463    -195.295      51.225
  O     -495.640    -196.106      51.446
  C     -493.461    -195.756      52.276
  O     -492.452    -194.781      52.505
  C     -494.379    -195.912      53.486
  O     -494.615    -194.623      54.086
  C     -495.668    -196.444      52.854
  N     -499.023    -200.337      52.691
  C     -499.183    -199.013      52.507
  N     -498.251    -198.036      52.574
  C     -497.032    -198.542      52.845
  C     -496.715    -199.880      53.061
  C     -497.785    -200.811      52.973
  N     -497.611    -202.164      53.183
  N     -495.368    -200.033      53.310
  C     -494.881    -198.810      53.248
  N     -495.842    -197.877      52.981
  O     -494.232    -192.881      49.041
  O     -495.710    -193.495      47.043
  H     -493.751    -194.294      54.394
  H     -493.679    -192.610      48.284
  H     -500.186    -198.682      52.270
  H     -493.834    -198.563      53.380
  H     -496.559    -195.955      53.282
  H     -493.960    -196.555      54.256
  H     -493.030    -196.736      52.021
  H     -494.738    -194.244      51.377
  H     -493.208    -194.689      49.585
  H     -498.357    -202.780      52.928
  H     -496.682    -202.491      53.394
  H     -493.566    -196.442      49.620
  P     -491.048    -195.296      53.112
  C     -490.781    -194.331      55.505
  O     -491.271    -195.402      54.692
  O     -490.093    -194.022      52.950
  O     -490.479    -196.514      52.440
  H     -489.160    -194.318      52.897
  H     -490.999    -194.535      56.533
  H     -491.255    -193.417      55.215
  H     -489.723    -194.240      55.376

 6  7  8  9  10  11  12  13  14  15  25  28  32  33  34  35 0
 6-311+G(2d,p)
 ****
 36  39  40 0
 6-311+G(2d,p)
 ****
 1  2  3  4  5  16  17  18  19  20  21  22  23  24 0
 3-21G
 ****
 26  27  29  30  31  37  38  41  42  43  44  45  46  47  48 0
 3-21G
 ****


