%nproc=1
%NoSave
%Mem=1900MB
#P OB98/GEN NMR

erre ene a

0 1
  C       -3.959    -157.477      95.492
  O       -2.664    -157.150      95.020
  P       -2.130    -157.774      93.647
  C       -0.289    -159.501      93.011
  O       -1.056    -158.900      94.031
  C        0.969    -160.167      93.582
  O        1.861    -159.118      94.034
  C        0.728    -161.060      94.794
  O        1.858    -161.919      94.957
  C        0.689    -160.052      95.921
  O        0.927    -160.652      97.191
  C        1.745    -159.008      95.473
  N        1.348    -157.640      95.851
  C        1.971    -157.091      96.968
  O        2.870    -157.664      97.582
  N        1.468    -155.897      97.407
  C        0.395    -155.249      96.869
  O       -0.227    -154.364      97.444
  C       -0.060    -155.750      95.563
  C        0.412    -156.922      95.131
  O       -1.242    -156.590      93.041
  O       -3.193    -158.211      92.700
  H        0.201    -161.302      97.339
  H       -1.761    -156.075      92.396
  H        1.823    -155.572      98.297
  H       -0.808    -155.179      95.030
  H        0.055    -157.343      94.196
  H        2.725    -159.213      95.921
  H       -0.304    -159.589      95.953
  H       -0.192    -161.649      94.742
  H        1.479    -160.724      92.786
  H       -0.022    -158.744      92.268
  H       -0.883    -160.255      92.484
  P        1.600    -163.503      94.960
  C        0.648    -164.871      96.913
  O        0.454    -163.771      96.047
  O        2.815    -164.361      95.082
  O        0.836    -163.748      93.572
  H        0.892    -164.689      93.328
  H        0.151    -164.663      97.864
  H        1.711    -165.051      97.100
  H        0.204    -165.764      96.466
  H       -4.140    -156.970      96.417
  H       -4.026    -158.534      95.646
  H       -4.689    -157.174      94.770

 3  4  5  6  7  8  9  10  11  12  13  23  28  29  30  31  32 0
 6-311+G(2d,p)
 ****
 33  34 0
 6-311+G(2d,p)
 ****
 1  2  14  15  16  17  18  19  20  21  22  24  25  26  27 0
 3-21G
 ****
 35  36  37  38  39  40  41  42  43  44  45 0
 3-21G
 ****


