%nproc=1
%NoSave
%Mem=1900MB
#P OB98/GEN NMR

erre ene a

0 1
  C      128.919      -3.731     179.091
  O      129.663      -4.931     179.047
  H      129.565      -2.904     178.786
  H      128.569      -3.542     180.109
  H      128.065      -3.777     178.409
  P      128.899      -6.326     179.254
  C      129.159      -7.243     176.856
  O      128.267      -6.723     177.833
  C      128.825      -8.707     176.573
  O      127.566      -8.807     175.874
  C      129.847      -9.418     175.692
  O      131.016      -9.739     176.424
  C      129.033     -10.618     175.225
  O      129.000     -11.637     176.233
  C      127.633      -9.984     175.034
  N      127.337      -9.646     173.641
  C      126.679     -10.620     172.894
  O      126.386     -11.730     173.347
  N      126.385     -10.285     171.598
  C      126.749      -9.128     170.971
  O      126.506      -8.899     169.786
  C      127.472      -8.151     171.796
  C      127.731      -8.450     173.071
  O      127.945      -6.382     180.402
  O      130.089      -7.386     179.423
  H      129.890     -12.038     176.256
  H      130.215      -7.591     180.369
  H      125.918     -10.982     171.038
  H      127.784      -7.222     171.326
  H      128.266      -7.741     173.694
  H      126.855     -10.669     175.392
  H      129.439     -11.078     174.323
  H      130.091      -8.798     174.818
  H      128.720      -9.225     177.539
  H      130.185      -7.169     177.238
  H      129.073      -6.643     175.943
  P      132.442      -9.806     175.702
  C      133.244      -7.517     176.538
  O      132.901      -8.294     175.397
  O      132.518     -10.731     174.531
  O      133.444     -10.261     176.865
  H      133.701     -11.196     176.736
  H      133.533      -6.535     176.227
  H      134.058      -7.981     177.054
  H      132.399      -7.450     177.191

 6  7  8  9  10  11  12  13  14  15  16  26  31  32  33  34  35 0
 6-311+G(2d,p)
 ****
 36  37 0
 6-311+G(2d,p)
 ****
 1  2  3  4  5  17  18  19  20  21  22  23  24  25 0
 3-21G
 ****
 27  28  29  30  38  39  40  41  42  43  44  45 0
 3-21G
 ****


