%nproc=1
%NoSave
%Mem=1900MB
#P OB98/GEN NMR

erre ene a

0 1
  C      106.118     427.610     269.464
  O      106.168     427.070     268.163
  H      106.567     426.898     270.163
  H      105.075     427.778     269.753
  H      106.669     428.554     269.528
  P      106.009     428.052     266.912
  C      104.265     429.798     266.150
  O      104.503     428.613     266.899
  C      103.208     430.684     266.813
  O      103.573     430.929     268.192
  C      103.089     432.050     266.141
  O      102.190     432.085     265.036
  C      102.573     432.922     267.287
  O      101.138     432.898     267.366
  C      103.189     432.266     268.532
  N      104.866     436.210     271.322
  C      103.581     435.936     270.896
  N      102.641     436.842     271.231
  N      103.267     434.876     270.197
  C      104.333     434.108     269.855
  C      105.650     434.293     270.203
  C      105.987     435.428     271.033
  O      107.104     435.710     271.451
  N      106.461     433.332     269.637
  C      105.636     432.626     268.884
  N      104.326     433.009     269.053
  O      106.019     427.058     265.653
  O      107.085     429.088     266.768
  H      100.856     431.968     267.502
  H      106.415     427.507     264.884
  H      105.051     437.025     271.875
  H      105.928     431.799     268.242
  H      102.459     432.191     269.348
  H      102.867     433.967     267.145
  H      102.846     437.721     271.692
  H      104.071     432.430     265.838
  H      101.728     436.778     270.783
  H      102.249     430.151     266.826
  H      103.926     429.477     265.166
  H      105.199     430.352     266.012
  P      102.115     433.368     264.089
  C      101.759     435.938     264.500
  O      101.611     434.606     264.953
  O      100.855     433.041     263.143
  O      103.351     433.656     263.296
  H      101.161     432.690     262.286
  H      101.356     436.610     265.229
  H      101.236     436.060     263.575
  H      102.797     436.152     264.354

 6  7  8  9  10  11  12  13  14  15  26  29  33  34 0
 6-311+G(2d,p)
 ****
 36  38  39  40  41 0
 6-311+G(2d,p)
 ****
 1  2  3  4  5  16  17  18  19  20  21  22  23  24  25 0
 3-21G
 ****
 27  28  30  31  32  35  37  42  43  44  45  46  47 0
 3-21G
 ****
 48  49 0
 3-21G
 ****


