%nproc=1
%NoSave
%Mem=1900MB
#P OB98/GEN NMR

erre ene a

0 1
  C     -145.800     149.357    -139.485
  O     -145.543     148.026    -139.100
  H     -145.748     149.991    -138.595
  H     -146.802     149.446    -139.910
  H     -145.054     149.703    -140.204
  P     -145.597     146.863    -140.206
  C     -147.995     146.096    -139.709
  O     -146.616     145.764    -139.616
  C     -148.860     145.037    -139.025
  O     -148.684     143.759    -139.695
  C     -148.530     144.831    -137.538
  O     -149.736     144.812    -136.774
  C     -147.882     143.455    -137.506
  O     -147.987     142.820    -136.236
  C     -148.617     142.763    -138.658
  N     -147.936     141.551    -139.094
  C     -148.372     140.356    -138.515
  O     -149.290     140.364    -137.691
  N     -147.729     139.189    -138.838
  C     -146.705     139.221    -139.634
  N     -146.093     138.035    -139.890
  C     -146.193     140.465    -140.246
  C     -146.851     141.580    -139.939
  O     -144.264     146.332    -140.618
  O     -146.426     147.493    -141.422
  H     -148.919     142.886    -135.930
  H     -146.205     147.001    -142.248
  H     -145.333     140.437    -140.899
  H     -146.548     142.543    -140.339
  H     -149.645     142.502    -138.369
  H     -146.817     143.551    -137.749
  H     -147.864     145.594    -137.137
  H     -149.915     145.310    -139.162
  H     -146.474     137.208    -139.446
  H     -148.264     146.186    -140.767
  H     -145.276     137.937    -140.474
  H     -148.153     147.059    -139.213
  P     -150.315     146.241    -136.329
  C     -149.268     145.714    -134.016
  O     -150.357     146.284    -134.727
  O     -151.855     146.163    -136.757
  O     -149.625     147.391    -136.983
  H     -152.022     146.756    -137.512
  H     -149.436     145.817    -132.964
  H     -148.364     146.219    -134.284
  H     -149.184     144.677    -134.264

 6  7  8  9  10  11  12  13  14  15  16  26  30  31  32  33  35 0
 6-311+G(2d,p)
 ****
 37  38 0
 6-311+G(2d,p)
 ****
 1  2  3  4  5  17  18  19  20  21  22  23  24  25 0
 3-21G
 ****
 27  28  29  34  36  39  40  41  42  43  44  45  46 0
 3-21G
 ****


