%nproc=1
%NoSave
%Mem=1900MB
#P OB98/GEN NMR

erre ene a

0 1
  C      161.598    -384.319      20.344
  O      162.080    -383.093      20.868
  P      162.957    -383.156      22.213
  C      165.041    -381.802      21.431
  O      164.499    -383.075      21.771
  C      166.347    -381.973      20.656
  O      166.089    -382.608      19.386
  C      167.069    -380.672      20.326
  O      167.727    -380.146      21.466
  C      167.999    -381.150      19.213
  O      169.134    -381.825      19.774
  C      167.111    -382.152      18.454
  N      167.778    -380.672      13.591
  C      168.626    -381.190      14.504
  N      168.383    -381.541      15.784
  C      167.093    -381.308      16.098
  C      166.114    -380.765      15.285
  C      166.494    -380.443      13.970
  N      165.616    -379.902      13.047
  N      164.917    -380.652      15.964
  C      165.166    -381.137      17.160
  N      166.466    -381.556      17.292
  O      162.791    -384.675      22.680
  O      162.546    -382.193      23.281
  H      169.788    -381.142      20.022
  H      162.791    -384.746      23.657
  H      169.649    -381.346      14.155
  H      164.445    -381.209      17.971
  H      167.668    -383.031      18.107
  H      168.380    -380.328      18.586
  H      166.361    -379.935      19.927
  H      167.006    -382.637      21.243
  H      165.244    -381.233      22.346
  H      166.005    -379.566      12.177
  H      164.711    -379.607      13.367
  H      164.305    -381.247      20.834
  P      167.052    -378.871      22.177
  C      167.580    -379.463      24.625
  O      166.588    -379.436      23.609
  O      165.676    -378.748      21.378
  O      167.910    -377.650      22.206
  H      165.210    -379.598      21.310
  H      167.120    -379.808      25.549
  H      167.985    -378.458      24.788
  H      168.383    -380.149      24.348
  H      161.034    -384.130      19.454
  H      160.971    -384.795      21.069
  H      162.425    -384.958      20.113

 3  4  5  6  7  8  9  10  11  12  22  25  29  30  31  32 0
 6-311+G(2d,p)
 ****
 33  36  37 0
 6-311+G(2d,p)
 ****
 1  2  13  14  15  16  17  18  19  20  21  23  24  26 0
 3-21G
 ****
 27  28  34  35  38  39  40  41  42  43  44  45  46  47  48 0
 3-21G
 ****


