%nproc=1
%NoSave
%Mem=1900MB
#P OB98/GEN NMR

erre ene a

0 1
  C      384.799    -894.750     111.697
  O      383.888    -895.150     110.684
  H      385.698    -894.350     111.213
  H      385.074    -895.600     112.317
  H      384.353    -893.960     112.311
  P      382.440    -895.680     111.109
  C      380.218    -895.330     109.843
  O      381.569    -895.770     109.759
  C      379.570    -895.310     108.459
  O      380.153    -894.230     107.690
  C      379.773    -896.600     107.665
  O      378.572    -896.870     106.916
  C      380.904    -896.260     106.713
  O      380.865    -897.050     105.511
  C      380.665    -894.770     106.465
  N      383.523    -893.490     102.504
  C      382.297    -894.110     102.533
  N      381.731    -894.470     101.350
  N      381.650    -894.360     103.654
  C      382.304    -893.940     104.754
  C      383.517    -893.310     104.837
  C      384.230    -893.060     103.597
  O      385.324    -892.520     103.492
  N      383.871    -893.060     106.149
  C      382.851    -893.540     106.855
  N      381.884    -894.090     106.053
  O      381.775    -894.910     112.213
  O      382.673    -897.210     111.512
  H      379.961    -896.980     105.152
  H      382.721    -897.310     112.482
  H      383.960    -893.320     101.594
  H      382.774    -893.520     107.942
  H      379.922    -894.590     105.665
  H      381.869    -896.430     107.199
  H      382.158    -894.290     100.459
  H      380.006    -897.470     108.308
  H      380.811    -894.900     101.371
  H      378.515    -895.070     108.577
  H      380.208    -894.330     110.274
  H      379.656    -896.000     110.514
  P      377.801    -898.250     107.180
  C      375.367    -899.010     107.611
  O      376.224    -897.930     107.190
  O      378.310    -899.070     108.308
  O      377.975    -899.020     105.773
  H      377.996    -900.000     105.956
  H      374.347    -898.689     107.580
  H      375.620    -899.297     108.610
  H      375.498    -899.846     106.956

 6  7  8  9  10  11  12  13  14  15  26  29  33  34 0
 6-311+G(2d,p)
 ****
 36  38  39  40  41 0
 6-311+G(2d,p)
 ****
 1  2  3  4  5  16  17  18  19  20  21  22  23  24  25 0
 3-21G
 ****
 27  28  30  31  32  35  37  42  43  44  45  46  47 0
 3-21G
 ****
 48  49 0
 3-21G
 ****


