%nproc=1
%NoSave
%Mem=1900MB
#P OB98/GEN NMR

erre ene a

0 1
  C      370.225    -180.986      79.302
  O      369.537    -182.171      79.629
  H      371.145    -181.249      78.773
  H      370.489    -180.453      80.220
  H      369.625    -180.335      78.661
  P      367.980    -182.081      79.984
  C      367.341    -184.409      79.065
  O      367.432    -183.576      80.213
  C      367.595    -185.876      79.404
  O      369.003    -186.082      79.657
  C      366.853    -186.322      80.667
  O      365.527    -186.768      80.441
  C      367.738    -187.462      81.170
  O      367.365    -188.716      80.582
  C      369.139    -187.053      80.710
  N      372.207    -188.016      84.688
  C      371.431    -188.899      83.958
  N      371.448    -190.184      84.368
  N      370.696    -188.532      82.937
  C      370.705    -187.200      82.709
  C      371.418    -186.228      83.379
  C      372.282    -186.649      84.457
  O      373.002    -185.912      85.120
  N      371.138    -184.970      82.889
  C      370.194    -185.180      81.992
  N      369.955    -186.525      81.788
  O      367.297    -181.678      78.590
  O      367.616    -181.097      81.057
  H      367.621    -188.695      79.635
  H      366.504    -181.136      78.756
  H      372.776    -188.357      85.441
  H      369.686    -184.405      81.423
  H      369.689    -187.903      80.285
  H      367.641    -187.583      82.254
  H      371.928    -190.503      85.199
  H      366.857    -185.530      81.419
  H      370.748    -190.822      83.981
  H      367.332    -186.501      78.544
  H      368.097    -184.048      78.362
  H      366.365    -184.293      78.586
  P      364.581    -187.204      81.657
  C      362.306    -186.080      80.977
  O      363.078    -187.254      81.132
  O      364.603    -185.908      82.600
  O      364.999    -188.436      82.386
  H      365.236    -186.029      83.334
  H      361.333    -186.338      80.615
  H      362.785    -185.428      80.277
  H      362.216    -185.585      81.921

 6  7  8  9  10  11  12  13  14  15  26  29  33  34 0
 6-311+G(2d,p)
 ****
 36  38  39  40  41 0
 6-311+G(2d,p)
 ****
 1  2  3  4  5  16  17  18  19  20  21  22  23  24  25 0
 3-21G
 ****
 27  28  30  31  32  35  37  42  43  44  45  46  47 0
 3-21G
 ****
 48  49 0
 3-21G
 ****


