%nproc=1
%NoSave
%Mem=1900MB
#P OB98/GEN NMR

erre ene a

0 1
  C     -346.771     266.533     203.526
  O     -346.352     265.705     204.592
  H     -347.714     266.142     203.132
  H     -346.030     266.525     202.724
  H     -346.935     267.558     203.872
  P     -345.060     266.131     205.439
  C     -343.815     264.511     203.865
  O     -343.952     264.995     205.197
  C     -342.746     263.423     203.815
  O     -342.703     262.824     202.498
  C     -341.334     263.932     204.086
  O     -341.146     264.182     205.465
  C     -340.512     262.789     203.513
  O     -340.453     261.684     204.432
  C     -341.339     262.408     202.260
  N     -340.813     263.006     201.030
  C     -339.647     262.439     200.525
  O     -339.069     261.494     201.057
  N     -339.141     263.029     199.397
  C     -339.623     264.161     198.799
  O     -339.014     264.780     197.931
  C     -340.896     264.671     199.334
  C     -341.416     264.086     200.419
  O     -345.306     266.477     206.870
  O     -344.473     267.383     204.626
  H     -344.731     268.208     205.076
  H     -340.025     262.023     205.244
  H     -338.268     262.658     199.044
  H     -341.345     265.527     198.848
  H     -342.339     264.464     200.847
  H     -341.355     261.317     202.130
  H     -339.482     263.083     203.300
  H     -341.142     264.837     203.497
  H     -343.024     262.641     204.534
  H     -343.517     265.348     203.219
  H     -344.782     264.125     203.522
  P     -340.732     265.633     205.995
  C     -338.314     265.329     205.204
  O     -339.160     265.621     206.308
  O     -341.579     266.163     207.106
  O     -340.837     266.572     204.702
  H     -341.408     267.336     204.908
  H     -337.293     265.347     205.523
  H     -338.462     266.061     204.438
  H     -338.551     264.359     204.820

 6  7  8  9  10  11  12  13  14  15  16  27  31  32  33  34  35 0
 6-311+G(2d,p)
 ****
 36  37 0
 6-311+G(2d,p)
 ****
 1  2  3  4  5  17  18  19  20  21  22  23  24  25 0
 3-21G
 ****
 26  28  29  30  38  39  40  41  42  43  44  45 0
 3-21G
 ****


