%nproc=1
%NoSave
%Mem=1900MB
#P OB98/GEN NMR

erre ene a

0 1
  C      -94.755       4.992    -144.001
  O      -93.646       5.863    -144.099
  H      -94.908       4.733    -142.950
  H      -94.557       4.075    -144.562
  H      -95.660       5.474    -144.383
  P      -93.378       6.557    -145.519
  C      -93.169       8.958    -144.543
  O      -92.529       7.888    -145.223
  C      -92.199       9.605    -143.555
  O      -92.049       8.721    -142.407
  C      -90.799       9.853    -144.129
  O      -90.292      11.073    -143.577
  C      -89.991       8.689    -143.582
  O      -88.593       8.934    -143.520
  C      -90.637       8.514    -142.203
  N      -90.375       7.197    -141.624
  C      -89.104       6.967    -141.107
  O      -88.215       7.813    -141.026
  N      -88.870       5.689    -140.667
  C      -89.747       4.645    -140.715
  O      -89.468       3.518    -140.322
  C      -91.069       4.948    -141.280
  C      -91.317       6.189    -141.705
  O      -94.820       7.118    -145.923
  O      -92.794       5.669    -146.567
  H      -95.319       6.447    -146.425
  H      -88.167       8.116    -143.189
  H      -87.954       5.504    -140.289
  H      -91.787       4.142    -141.345
  H      -92.275       6.443    -142.146
  H      -90.288       9.293    -141.517
  H      -90.153       7.800    -144.203
  H      -90.764       9.900    -145.223
  H      -92.642      10.537    -143.185
  H      -94.034       8.572    -143.993
  H      -93.517       9.693    -145.277
  P      -88.987      11.708    -144.262
  C      -90.212      14.022    -144.405
  O      -89.076      13.283    -143.976
  O      -89.351      11.563    -145.811
  O      -87.724      11.039    -143.840
  H      -90.299      11.684    -145.992
  H      -90.095      15.049    -144.128
  H      -91.091      13.626    -143.941
  H      -90.305      13.948    -145.468

 6  7  8  9  10  11  12  13  14  15  16  27  31  32  33  34  35 0
 6-311+G(2d,p)
 ****
 36  37 0
 6-311+G(2d,p)
 ****
 1  2  3  4  5  17  18  19  20  21  22  23  24  25 0
 3-21G
 ****
 26  28  29  30  38  39  40  41  42  43  44  45 0
 3-21G
 ****


