%nproc=1
%NoSave
%Mem=1900MB
#P OB98/GEN NMR

erre ene a

0 1
  C      289.906     499.912     360.523
  O      289.117     501.059     360.290
  H      289.893     499.690     361.596
  H      290.942     500.104     360.221
  H      289.520     499.045     359.989
  P      288.726     501.430     358.786
  C      288.698     503.999     358.533
  O      287.954     502.841     358.853
  C      288.285     505.183     359.408
  O      286.847     505.402     359.254
  C      288.560     504.980     360.900
  O      288.836     506.270     361.474
  C      287.228     504.458     361.393
  O      287.104     504.567     362.797
  C      286.265     505.310     360.564
  N      284.910     504.749     360.522
  C      284.050     505.132     361.550
  O      284.375     505.871     362.474
  N      282.794     504.593     361.503
  C      282.339     503.683     360.593
  O      281.211     503.208     360.617
  C      283.313     503.283     359.554
  C      284.530     503.826     359.571
  O      288.021     500.369     358.013
  O      290.117     501.832     358.098
  H      287.784     504.017     363.241
  H      290.098     501.623     357.146
  H      282.148     504.868     362.227
  H      282.993     502.551     358.823
  H      285.268     503.547     358.821
  H      286.184     506.325     360.974
  H      287.114     503.400     361.140
  H      289.391     504.299     361.099
  H      288.783     506.094     359.036
  H      288.520     504.236     357.469
  H      289.770     503.797     358.665
  P      290.188     507.074     361.177
  C      291.030     508.008     363.429
  O      290.313     508.279     362.225
  O      290.364     507.476     359.750
  O      291.366     506.070     361.634
  H      292.161     506.247     361.113
  H      291.043     508.885     364.041
  H      292.034     507.725     363.190
  H      290.551     507.211     363.958

 6  7  8  9  10  11  12  13  14  15  16  26  31  32  33  34  35 0
 6-311+G(2d,p)
 ****
 36  37 0
 6-311+G(2d,p)
 ****
 1  2  3  4  5  17  18  19  20  21  22  23  24  25 0
 3-21G
 ****
 27  28  29  30  38  39  40  41  42  43  44  45 0
 3-21G
 ****


