%nproc=1
%NoSave
%Mem=1900MB
#P OB98/GEN NMR

erre ene a

0 1
  C      -89.353      84.693       5.449
  O      -90.657      84.691       4.904
  H      -89.075      83.676       5.735
  H      -88.654      85.047       4.688
  H      -89.296      85.354       6.317
  P      -91.880      84.496       5.925
  C      -93.999      85.637       4.954
  O      -93.215      84.457       5.028
  C      -95.451      85.337       5.322
  O      -95.959      84.321       4.412
  C      -95.645      84.822       6.757
  O      -96.851      85.388       7.283
  C      -95.845      83.329       6.566
  O      -96.587      82.733       7.624
  C      -96.561      83.293       5.219
  N      -99.106      79.066       3.989
  C      -99.524      80.299       4.346
  N      -98.775      81.391       4.606
  C      -97.472      81.132       4.398
  C      -96.896      79.930       4.027
  C      -97.777      78.851       3.836
  N      -97.357      77.575       3.540
  N      -95.521      80.051       3.974
  C      -95.271      81.296       4.330
  N      -96.420      81.987       4.598
  O      -91.955      85.924       6.646
  O      -91.729      83.382       6.904
  H      -97.541      82.864       7.455
  H      -91.357      85.933       7.416
  H     -100.599      80.425       4.447
  H      -94.289      81.734       4.439
  H      -97.634      83.504       5.305
  H      -94.869      82.833       6.508
  H      -94.808      85.049       7.426
  H      -96.047      86.242       5.154
  H      -93.967      86.024       3.930
  H      -98.052      76.844       3.526
  H      -96.368      77.375       3.530
  H      -93.584      86.391       5.629
  P      -96.761      86.861       7.910
  C      -99.220      87.381       7.227
  O      -98.243      87.355       8.263
  O      -96.356      87.769       6.656
  O      -95.771      86.985       9.023
  H      -95.795      88.513       6.945
  H     -100.150      87.732       7.623
  H      -99.349      86.394       6.834
  H      -98.894      88.036       6.446

 6  7  8  9  10  11  12  13  14  15  25  28  32  33  34  35 0
 6-311+G(2d,p)
 ****
 36  39  40 0
 6-311+G(2d,p)
 ****
 1  2  3  4  5  16  17  18  19  20  21  22  23  24 0
 3-21G
 ****
 26  27  29  30  31  37  38  41  42  43  44  45  46  47 0
 3-21G
 ****
 48 0
 3-21G
 ****


