%nproc=1
%NoSave
%Mem=1900MB
#P OB98/GEN NMR

erre ene a

0 1
  C      504.613     252.967     863.615
  O      504.424     253.651     862.393
  H      503.701     253.083     864.216
  H      505.450     253.396     864.163
  H      504.780     251.897     863.445
  P      505.612     253.634     861.321
  C      503.888     254.491     859.571
  O      505.146     254.705     860.195
  C      503.137     255.813     859.422
  O      503.973     256.817     858.782
  C      501.885     255.739     858.564
  O      500.799     255.096     859.190
  C      501.627     257.232     858.365
  O      501.081     257.791     859.566
  C      503.073     257.748     858.114
  N      503.411     257.819     856.692
  C      503.196     259.060     856.059
  O      502.746     260.033     856.702
  N      503.485     259.187     854.726
  C      503.908     258.164     854.053
  N      504.162     258.328     852.723
  C      504.124     256.826     854.666
  C      503.850     256.740     855.974
  O      506.017     252.296     860.803
  O      506.805     254.429     862.034
  H      500.964     258.760     859.393
  H      507.582     254.443     861.416
  H      504.453     255.993     854.057
  H      503.983     255.786     856.485
  H      503.220     258.730     858.572
  H      500.926     257.437     857.539
  H      502.103     255.289     857.582
  H      502.920     256.174     860.435
  H      504.008     259.252     852.336
  H      503.319     253.785     860.178
  H      504.436     257.572     852.116
  H      504.039     254.054     858.567
  P      499.963     254.050     858.301
  C      499.589     252.754     860.547
  O      499.034     253.224     859.319
  O      501.066     252.984     857.841
  O      499.217     254.650     857.139
  H      501.377     253.183     856.929
  H      498.838     252.228     861.100
  H      499.938     253.586     861.122
  H      500.406     252.095     860.340

 6  7  8  9  10  11  12  13  14  15  16  26  30  31  32  33  35 0
 6-311+G(2d,p)
 ****
 37  38 0
 6-311+G(2d,p)
 ****
 1  2  3  4  5  17  18  19  20  21  22  23  24  25 0
 3-21G
 ****
 27  28  29  34  36  39  40  41  42  43  44  45  46 0
 3-21G
 ****


