%nproc=1
%NoSave
%Mem=1900MB
#P OB98/GEN NMR

erre ene a

0 1
  C      205.928    -761.479      60.497
  O      204.924    -762.409      60.843
  P      204.398    -762.517      62.354
  C      202.370    -761.030      61.770
  O      203.524    -761.189      62.593
  C      201.096    -761.017      62.619
  O      201.152    -759.957      63.597
  C      199.823    -760.780      61.822
  O      199.433    -761.959      61.140
  C      198.864    -760.341      62.921
  O      198.312    -761.466      63.615
  C      199.793    -759.529      63.851
  N      199.645    -758.090      63.674
  C      198.349    -757.590      63.841
  O      197.412    -758.348      64.089
  N      198.135    -756.241      63.676
  C      199.131    -755.469      63.347
  N      198.853    -754.149      63.186
  C      200.502    -755.966      63.130
  C      200.683    -757.274      63.308
  O      205.446    -762.787      63.378
  O      203.283    -763.665      62.265
  H      198.124    -761.159      64.525
  H      203.689    -764.560      62.180
  H      201.294    -755.287      62.846
  H      201.661    -757.720      63.167
  H      199.589    -759.768      64.901
  H      198.025    -759.758      62.527
  H      199.975    -759.956      61.113
  H      201.036    -761.974      63.154
  H      197.893    -753.852      63.311
  H      202.330    -761.872      61.070
  H      199.540    -753.471      62.894
  H      202.461    -760.104      61.194
  P      199.551    -762.033      59.547
  C      201.331    -763.877      59.585
  O      201.019    -762.558      59.184
  O      199.116    -760.809      58.815
  O      198.618    -763.281      59.163
  H      198.072    -763.042      58.387
  H      202.196    -764.223      59.013
  H      200.492    -764.554      59.413
  H      201.590    -763.884      60.649
  H      206.142    -761.558      59.452
  H      206.815    -761.686      61.059
  H      205.588    -760.489      60.718

 3  4  5  6  7  8  9  10  11  12  13  23  27  28  29  30  32 0
 6-311+G(2d,p)
 ****
 34  35 0
 6-311+G(2d,p)
 ****
 1  2  14  15  16  17  18  19  20  21  22  24  25  26 0
 3-21G
 ****
 31  33  36  37  38  39  40  41  42  43  44  45  46 0
 3-21G
 ****


