%nproc=1
%NoSave
%Mem=1900MB
#P OB98/GEN NMR

erre ene a

0 1
  C      124.080      85.489      93.491
  O      124.192      84.080      93.492
  H      123.597      85.803      92.562
  H      125.071      85.946      93.539
  H      123.472      85.832      94.333
  P      124.682      83.342      94.829
  C      122.384      83.808      95.905
  O      123.795      83.926      96.032
  C      121.843      82.856      96.970
  O      122.213      83.317      98.287
  C      120.323      82.739      96.984
  O      119.863      81.935      95.913
  C      120.096      82.152      98.371
  O      120.335      80.738      98.373
  C      121.172      82.895      99.199
  N      120.641      84.036      99.946
  C      120.010      83.745     101.153
  O      119.860      82.595     101.572
  N      119.537      84.822     101.857
  C      119.564      86.123     101.438
  O      119.076      87.049     102.087
  C      120.209      86.367     100.142
  C      120.709      85.330      99.464
  O      126.156      83.353      95.074
  O      124.122      81.851      94.662
  H      120.238      80.438      99.297
  H      124.840      81.262      94.362
  H      119.068      84.631     102.728
  H      120.241      87.389      99.776
  H      121.186      85.492      98.505
  H      121.642      82.208      99.914
  H      119.077      82.301      98.730
  H      119.865      83.737      96.947
  H      122.306      81.870      96.813
  H      122.151      83.412      94.908
  H      121.935      84.802      96.008
  P      118.330      81.968      95.463
  C      118.971      83.249      93.335
  O      118.140      83.235      94.489
  O      117.338      81.882      96.575
  O      118.192      80.722      94.465
  H      117.705      79.996      94.907
  H      118.767      84.127      92.759
  H      118.773      82.380      92.743
  H      119.998      83.250      93.635

 6  7  8  9  10  11  12  13  14  15  16  26  31  32  33  34  35 0
 6-311+G(2d,p)
 ****
 36  37 0
 6-311+G(2d,p)
 ****
 1  2  3  4  5  17  18  19  20  21  22  23  24  25 0
 3-21G
 ****
 27  28  29  30  38  39  40  41  42  43  44  45 0
 3-21G
 ****


