%nproc=1
%NoSave
%Mem=1900MB
#P OB98/GEN NMR

erre ene a

0 1
  C     -606.981     -26.205    -442.648
  O     -608.162     -26.440    -443.395
  P     -608.943     -25.159    -443.964
  C     -610.103     -26.530    -445.853
  O     -609.209     -25.468    -445.524
  C     -609.791     -27.108    -447.222
  O     -608.497     -27.769    -447.189
  C     -610.767     -28.144    -447.715
  O     -611.933     -27.542    -448.277
  C     -609.946     -28.859    -448.793
  O     -609.976     -28.079    -450.017
  C     -608.526     -28.822    -448.182
  N     -605.535     -32.910    -448.535
  C     -605.660     -31.820    -449.374
  N     -604.831     -31.787    -450.466
  N     -606.488     -30.833    -449.184
  C     -607.215     -30.959    -448.059
  C     -607.203     -32.003    -447.148
  C     -606.302     -33.108    -447.396
  O     -606.206     -34.130    -446.727
  N     -608.083     -31.773    -446.118
  C     -608.605     -30.586    -446.355
  N     -608.134     -30.068    -447.560
  O     -607.812     -24.024    -444.005
  O     -610.124     -24.735    -443.168
  H     -610.900     -28.073    -450.318
  H     -608.201     -23.142    -443.952
  H     -604.873     -33.638    -448.734
  H     -609.305     -30.063    -445.724
  H     -607.775     -28.562    -448.941
  H     -610.316     -29.861    -449.027
  H     -604.074     -32.446    -450.586
  H     -611.020     -28.870    -446.922
  H     -604.866     -30.974    -451.063
  H     -609.705     -26.269    -447.938
  H     -611.120     -26.141    -445.860
  H     -610.023     -27.308    -445.069
  P     -613.366     -28.183    -447.829
  C     -614.126     -25.712    -447.622
  O     -614.095     -27.004    -447.029
  O     -612.930     -29.217    -446.665
  O     -614.108     -28.831    -448.930
  H     -613.597     -29.923    -446.596
  H     -614.233     -25.775    -448.713
  H     -613.209     -25.171    -447.382
  H     -614.988     -25.162    -447.234
  H     -606.566     -27.140    -442.333
  H     -607.214     -25.611    -441.789
  H     -606.270     -25.687    -443.258

 3  4  5  6  7  8  9  10  11  12  23  26  30  31  33  0
 6-311+G(2d,p)
 ****
 35  36  37  38 0
 6-311+G(2d,p)
 ****
 1  2  13  14  15  16  17  18  19  20  21  22  24  25  27  28  29 0
 3-21G
 ****
 32  34  39  40  41  42  43  44  45  46  47  48  49 0
 3-21G
 ****


