%nproc=1
%NoSave
%Mem=1900MB
#P OB98/GEN NMR

erre ene a

0 1
  C      117.626     -81.741     562.236
  O      116.618     -80.892     561.710
  P      115.901     -79.862     562.706
  C      117.138     -77.868     561.595
  O      116.813     -78.546     562.806
  C      117.124     -76.350     561.809
  O      115.771     -75.918     562.135
  C      118.038     -75.878     562.941
  O      118.580     -74.589     562.615
  C      117.090     -75.689     564.104
  O      117.616     -74.777     565.070
  C      115.838     -75.184     563.379
  N      112.421     -72.938     566.346
  C      113.373     -72.370     565.515
  N      113.474     -71.028     565.545
  N      114.140     -73.063     564.711
  C      113.931     -74.401     564.794
  C      113.013     -75.081     565.568
  C      112.174     -74.302     566.457
  O      111.334     -74.737     567.233
  N      113.067     -76.428     565.349
  C      114.051     -76.584     564.480
  N      114.625     -75.385     564.138
  O      116.093     -80.558     564.135
  O      114.457     -79.623     562.416
  H      118.402     -75.210     565.464
  H      115.250     -80.947     564.430
  H      111.863     -72.359     566.950
  H      114.397     -77.527     564.086
  H      115.913     -74.121     563.130
  H      116.907     -76.650     564.608
  H      112.956     -70.442     566.187
  H      118.860     -76.570     563.184
  H      114.191     -70.593     564.979
  H      117.396     -75.864     560.861
  H      116.397     -78.131     560.830
  H      118.121     -78.186     561.243
  P      120.181     -74.497     562.560
  C      120.227     -73.891     560.031
  O      120.591     -74.807     561.046
  O      120.657     -75.808     563.357
  O      120.740     -73.238     563.143
  H      121.540     -75.665     563.736
  H      121.139     -73.486     559.574
  H      119.624     -73.062     560.411
  H      119.657     -74.421     559.265
  H      118.008     -82.367     561.457
  H      117.210     -82.350     563.011
  H      118.420     -81.146     562.637

 3  4  5  6  7  8  9  10  11  12  23  26  30  31 0
 6-311+G(2d,p)
 ****
 33  35  36  37  38 0
 6-311+G(2d,p)
 ****
 1  2  13  14  15  16  17  18  19  20  21  22  24  25 0
 3-21G
 ****
 27  28  29  32  34  39  40  41  42  43  44  45  46  47  48  49 0
 3-21G
 ****


