%nproc=1
%NoSave
%Mem=1900MB
#P OB98/GEN NMR

erre ene a

0 1
  C      583.786     232.433      58.072
  O      583.290     232.348      56.755
  P      584.170     231.890      55.504
  C      583.465     233.932      54.017
  O      584.520     233.190      54.625
  C      583.931     234.567      52.701
  O      582.783     235.157      52.044
  C      584.935     235.712      52.949
  O      586.033     235.737      52.038
  C      584.044     236.946      52.995
  O      584.732     238.157      52.771
  C      582.966     236.585      51.972
  N      580.407     240.979      52.080
  C      581.674     240.725      51.588
  N      582.416     241.806      51.261
  N      582.174     239.512      51.480
  C      581.361     238.542      51.954
  C      580.088     238.674      52.457
  C      579.533     240.011      52.546
  O      578.459     240.295      53.073
  N      579.590     237.485      52.909
  C      580.577     236.625      52.708
  N      581.686     237.237      52.167
  O      583.719     230.657      54.785
  O      585.585     231.564      56.200
  H      584.137     238.888      53.002
  H      585.982     230.820      55.705
  H      580.111     241.938      52.219
  H      580.553     235.578      52.966
  H      583.278     236.837      50.954
  H      583.617     237.001      54.000
  H      582.113     242.739      51.474
  H      585.427     235.593      53.925
  H      583.419     241.660      51.146
  H      584.334     233.790      52.045
  H      583.184     234.711      54.734
  H      582.596     233.296      53.849
  P      587.591     235.691      52.357
  C      587.923     238.118      53.112
  O      587.914     236.764      53.509
  O      588.297     236.343      51.065
  O      588.143     234.324      52.611
  H      589.111     235.851      50.861
  H      588.413     238.708      53.900
  H      586.901     238.481      52.998
  H      588.473     238.246      52.183
  H      583.006     232.762      58.726
  H      584.596     233.131      58.104
  H      584.132     231.470      58.385

 3  4  5  6  7  8  9  10  11  12  23  26  30  31 0
 6-311+G(2d,p)
 ****
 33  35  36  37  38 0
 6-311+G(2d,p)
 ****
 1  2  13  14  15  16  17  18  19  20  21  22  24  25 0
 3-21G
 ****
 27  28  29  32  34  39  40  41  42  43  44  45  46  47  48  49 0
 3-21G
 ****


