%nproc=1
%NoSave
%Mem=1900MB
#P OB98/GEN NMR

erre ene a

0 1
  C      367.234    -733.580      24.816
  O      366.163    -732.685      25.062
  H      367.720    -733.820      25.769
  H      367.980    -733.131      24.158
  H      366.861    -734.508      24.371
  P      365.393    -732.063      23.798
  C      366.059    -730.416      21.915
  O      366.381    -730.952      23.197
  C      366.654    -729.017      21.768
  O      368.098    -729.093      21.695
  C      366.216    -728.315      20.498
  O      364.891    -727.835      20.616
  C      367.290    -727.246      20.370
  O      367.025    -726.137      21.240
  C      368.547    -728.018      20.836
  N      369.330    -728.542      19.725
  C      370.694    -728.772      19.987
  O      371.160    -728.532      21.108
  N      371.492    -729.239      18.971
  C      370.975    -729.478      17.805
  N      371.823    -729.927      16.831
  C      369.554    -729.266      17.489
  C      368.793    -728.796      18.481
  O      363.990    -731.586      24.028
  O      365.460    -733.233      22.703
  H      367.826    -725.569      21.199
  H      364.693    -733.819      22.789
  H      369.169    -729.474      16.504
  H      367.734    -728.615      18.329
  H      369.194    -727.370      21.448
  H      367.355    -726.864      19.353
  H      366.307    -728.987      19.643
  H      366.394    -728.435      22.660
  H      372.801    -730.055      17.093
  H      364.973    -730.372      21.844
  H      371.524    -730.237      15.919
  H      366.442    -731.074      21.128
  P      364.126    -727.208      19.346
  C      364.080    -724.901      18.201
  O      364.701    -725.726      19.200
  O      362.635    -727.321      19.376
  O      364.790    -727.982      18.104
  H      364.479    -728.912      18.049
  H      364.545    -723.937      18.195
  H      363.039    -724.793      18.424
  H      364.194    -725.358      17.240

 6  7  8  9  10  11  12  13  14  15  16  26  30  31  32  33  35 0
 6-311+G(2d,p)
 ****
 37  38 0
 6-311+G(2d,p)
 ****
 1  2  3  4  5  17  18  19  20  21  22  23  24  25 0
 3-21G
 ****
 27  28  29  34  36  39  40  41  42  43  44  45  46 0
 3-21G
 ****


