%nproc=1
%NoSave
%Mem=1900MB
#P OB98/GEN NMR

erre ene a

0 1
  C       14.048     112.798     352.377
  O       15.225     112.532     351.640
  P       15.407     113.035     350.142
  C       17.872     113.814     350.277
  O       16.963     112.837     349.763
  C       19.308     113.386     349.997
  O       19.606     112.159     350.735
  C       19.572     113.107     348.485
  O       20.683     113.813     347.933
  C       19.682     111.591     348.442
  O       20.364     111.090     347.301
  C       20.296     111.280     349.813
  N       20.163     109.873     350.188
  C       20.950     109.424     351.253
  O       21.719     110.122     351.895
  N       20.856     108.080     351.532
  C       20.191     107.157     350.796
  O       20.226     105.949     351.044
  C       19.413     107.678     349.658
  C       19.414     108.994     349.417
  O       14.888     114.414     349.863
  O       14.705     111.894     349.273
  H       20.246     110.128     347.290
  H       15.089     111.009     349.384
  H       21.424     107.754     352.309
  H       18.880     106.971     349.051
  H       18.849     109.416     348.583
  H       21.356     111.535     349.841
  H       18.654     111.182     348.401
  H       18.729     113.432     347.879
  H       19.978     114.180     350.355
  H       17.727     113.883     351.355
  H       17.639     114.795     349.841
  P       20.625     114.752     346.634
  C       22.052     116.740     347.559
  O       21.936     115.678     346.625
  O       19.333     115.486     346.444
  O       20.887     113.733     345.427
  H       20.443     114.068     344.617
  H       22.673     117.523     347.123
  H       22.535     116.363     348.470
  H       21.071     117.158     347.819
  H       14.136     112.372     353.355
  H       13.207     112.367     351.874
  H       13.910     113.856     352.460

 3  4  5  6  7  8  9  10  11  12  13  23  28  29  30  31  32 0
 6-311+G(2d,p)
 ****
 33  34 0
 6-311+G(2d,p)
 ****
 1  2  14  15  16  17  18  19  20  21  22  24  25  26  27 0
 3-21G
 ****
 35  36  37  38  39  40  41  42  43  44  45 0
 3-21G
 ****


