%nproc=1
%NoSave
%Mem=1900MB
#P OB98/GEN NMR

erre ene a

0 1
  C      267.113    -207.421    -193.318
  O      266.513    -206.457    -194.168
  P      266.106    -205.043    -193.540
  C      264.517    -204.337    -191.588
  O      264.857    -205.318    -192.555
  C      262.999    -204.338    -191.341
  O      262.352    -203.557    -192.374
  C      262.345    -205.724    -191.348
  O      261.265    -205.681    -190.406
  C      261.810    -205.848    -192.756
  O      260.772    -206.825    -192.877
  C      261.379    -204.417    -193.014
  N      258.608    -204.849    -197.244
  C      258.392    -205.381    -195.977
  N      257.246    -206.080    -195.809
  N      259.218    -205.247    -194.972
  C      260.318    -204.508    -195.288
  C      260.669    -203.962    -196.512
  C      259.717    -204.091    -197.594
  O      259.828    -203.567    -198.705
  N      261.893    -203.358    -196.462
  C      262.258    -203.476    -195.197
  N      261.314    -204.117    -194.434
  O      265.447    -204.267    -194.768
  O      267.217    -204.266    -192.892
  H      261.178    -207.697    -192.778
  H      266.113    -203.704    -195.226
  H      257.926    -204.975    -197.970
  H      263.182    -203.107    -194.773
  H      260.391    -204.182    -192.584
  H      262.623    -206.148    -193.439
  H      256.548    -206.202    -196.534
  H      263.042    -206.542    -191.081
  H      257.047    -206.458    -194.883
  H      262.814    -203.827    -190.384
  H      264.805    -203.343    -191.968
  H      265.072    -204.517    -190.662
  P      260.952    -207.013    -189.558
  C      259.192    -208.903    -189.611
  O      259.723    -207.765    -190.253
  O      260.306    -206.425    -188.207
  O      262.151    -207.855    -189.250
  H      260.536    -206.998    -187.449
  H      258.158    -209.069    -189.965
  H      259.172    -208.801    -188.524
  H      259.790    -209.785    -189.883
  H      267.326    -208.307    -193.878
  H      266.443    -207.657    -192.518
  H      268.023    -207.026    -192.916

 3  4  5  6  7  8  9  10  11  12  23  26  30  31 0
 6-311+G(2d,p)
 ****
 33  35  36  37  38 0
 6-311+G(2d,p)
 ****
 1  2  13  14  15  16  17  18  19  20  21  22  24  25 0
 3-21G
 ****
 27  28  29  32  34  39  40  41  42  43  44  45  46  47  48  49 0
 3-21G
 ****


