%nproc=1
%NoSave
%Mem=1900MB
#P OB98/GEN NMR

erre ene a

0 1
  C     -578.588    -174.714      76.889
  O     -577.717    -173.878      76.145
  P     -578.314    -172.531      75.505
  C     -576.292    -170.966      75.960
  O     -577.060    -171.662      74.990
  C     -574.797    -171.051      75.657
  O     -574.330    -172.396      75.977
  C     -574.426    -170.790      74.180
  O     -573.132    -170.157      74.181
  C     -574.303    -172.186      73.598
  O     -573.520    -172.204      72.416
  C     -573.683    -172.924      74.786
  N     -571.990    -177.292      72.705
  C     -571.548    -176.016      72.612
  N     -572.049    -174.899      73.198
  C     -573.121    -175.211      73.950
  C     -573.713    -176.454      74.118
  C     -573.088    -177.538      73.463
  N     -573.525    -178.843      73.570
  N     -574.814    -176.360      74.942
  C     -574.887    -175.087      75.268
  N     -573.884    -174.354      74.712
  O     -578.820    -171.725      76.793
  O     -579.411    -172.727      74.515
  H     -573.498    -173.114      72.065
  H     -579.798    -171.680      76.800
  H     -570.672    -175.861      71.982
  H     -575.666    -174.650      75.895
  H     -572.595    -172.741      74.878
  H     -575.294    -172.576      73.365
  H     -575.153    -170.168      73.645
  H     -574.262    -170.355      76.317
  H     -576.476    -171.411      76.935
  H     -572.956    -179.568      73.186
  H     -574.232    -179.052      74.277
  H     -576.615    -169.914      75.991
  P     -573.003    -168.775      73.369
  C     -570.466    -169.057      73.839
  O     -571.473    -168.650      72.916
  O     -573.164    -167.654      74.520
  O     -574.017    -168.605      72.280
  H     -573.528    -166.841      74.124
  H     -569.623    -169.471      73.276
  H     -570.829    -169.807      74.543
  H     -570.117    -168.176      74.398
  H     -578.046    -175.565      77.247
  H     -579.391    -175.041      76.262
  H     -578.984    -174.168      77.719

 3  4  5  6  7  8  9  10  11  12  22  25  29  30  31  32 0
 6-311+G(2d,p)
 ****
 33  36  37 0
 6-311+G(2d,p)
 ****
 1  2  13  14  15  16  17  18  19  20  21  23  24  26 0
 3-21G
 ****
 27  28  34  35  38  39  40  41  42  43  44  45  46  47  48 0
 3-21G
 ****


