%nproc=1
%NoSave
%Mem=1900MB
#P OB98/GEN NMR

erre ene a

0 1
  C     -456.681    -607.136    -226.331
  O     -457.507    -607.211    -225.169
  P     -457.216    -606.133    -224.008
  C     -459.727    -605.677    -223.545
  O     -458.483    -606.115    -223.014
  C     -460.422    -606.784    -224.342
  O     -460.445    -608.029    -223.581
  C     -461.864    -606.470    -224.719
  O     -462.135    -607.071    -225.992
  C     -462.666    -607.192    -223.658
  O     -464.016    -607.393    -224.075
  C     -461.818    -608.452    -223.504
  N     -465.340    -610.919    -220.747
  C     -465.382    -610.363    -221.971
  N     -464.408    -609.700    -222.628
  C     -463.270    -609.684    -221.900
  C     -463.085    -610.204    -220.626
  C     -464.185    -610.851    -220.049
  N     -464.152    -611.395    -218.779
  N     -461.801    -609.955    -220.184
  C     -461.229    -609.283    -221.174
  N     -462.072    -609.135    -222.242
  O     -457.322    -604.733    -224.782
  O     -455.889    -606.292    -223.350
  H     -464.548    -607.635    -223.288
  H     -456.431    -604.341    -224.880
  H     -466.328    -610.448    -222.500
  H     -460.234    -608.901    -221.165
  H     -462.004    -609.183    -224.298
  H     -462.674    -606.607    -222.726
  H     -462.097    -605.393    -224.763
  H     -459.832    -606.977    -225.257
  H     -459.574    -604.807    -224.196
  H     -464.997    -611.812    -218.420
  H     -463.316    -611.303    -218.223
  H     -460.358    -605.326    -222.720
  P     -462.490    -606.070    -227.199
  C     -460.936    -607.213    -228.951
  O     -462.274    -606.900    -228.549
  O     -461.269    -605.019    -227.199
  O     -463.812    -605.401    -227.060
  H     -461.563    -604.176    -227.584
  H     -460.930    -608.237    -229.336
  H     -460.239    -607.139    -228.113
  H     -460.644    -606.531    -229.738
  H     -456.970    -607.898    -227.024
  H     -455.658    -607.278    -226.051
  H     -456.796    -606.176    -226.789

 3  4  5  6  7  8  9  10  11  12  22  25  29  30  31  32 0
 6-311+G(2d,p)
 ****
 33  36  37 0
 6-311+G(2d,p)
 ****
 1  2  13  14  15  16  17  18  19  20  21  23  24  26 0
 3-21G
 ****
 27  28  34  35  38  39  40  41  42  43  44  45  46  47  48 0
 3-21G
 ****


