%nproc=1
%NoSave
%Mem=1900MB
#P OB98/GEN NMR

erre ene a

0 1
  C       -5.431     -10.937      28.989
  O       -5.009     -10.861      27.646
  H       -5.259     -11.953      29.352
  H       -6.501     -10.720      29.049
  H       -4.879     -10.239      29.623
  P       -4.718      -9.423      27.011
  C       -3.557      -8.559      24.874
  O       -3.637      -9.603      25.837
  C       -2.370      -8.752      23.930
  O       -1.139      -8.491      24.637
  C       -2.275     -10.182      23.390
  O       -3.038     -10.421      22.221
  C       -0.781     -10.312      23.106
  O       -0.460      -9.858      21.781
  C       -0.138      -9.400      24.156
  N        2.464      -9.279      28.555
  C        2.239      -8.256      27.653
  N        2.812      -7.070      27.949
  N        1.533      -8.401      26.563
  C        1.110      -9.668      26.353
  C        1.288     -10.766      27.164
  C        2.007     -10.580      28.406
  O        2.219     -11.448      29.246
  N        0.750     -11.900      26.604
  C        0.327     -11.501      25.421
  N        0.450     -10.141      25.257
  O       -3.869      -8.677      28.150
  O       -5.931      -8.621      26.648
  H        0.498      -9.989      21.640
  H       -4.052      -7.721      28.120
  H        2.990      -9.100      29.391
  H       -0.117     -12.142      24.668
  H        0.662      -8.790      23.720
  H       -0.463     -11.356      23.166
  H        3.433      -6.926      28.728
  H       -2.538     -10.906      24.166
  H        2.831      -6.350      27.224
  H       -2.433      -8.020      23.115
  H       -3.443      -7.629      25.432
  H       -4.490      -8.491      24.308
  P       -3.285     -11.909      21.692
  C       -4.409     -12.906      19.538
  O       -4.299     -11.845      20.462
  O       -4.161     -12.566      22.858
  O       -2.053     -12.701      21.403
  H       -3.600     -13.101      23.450
  H       -5.141     -12.660      18.798
  H       -4.706     -13.797      20.051
  H       -3.463     -13.066      19.064

 6  7  8  9  10  11  12  13  14  15  26  29  33  34 0
 6-311+G(2d,p)
 ****
 36  38  39  40  41 0
 6-311+G(2d,p)
 ****
 1  2  3  4  5  16  17  18  19  20  21  22  23  24  25 0
 3-21G
 ****
 27  28  30  31  32  35  37  42  43  44  45  46  47 0
 3-21G
 ****
 48  49 0
 3-21G
 ****


