%nproc=1
%NoSave
%Mem=1900MB
#P OB98/GEN NMR

erre ene a

0 1
  C     -187.703     249.635     168.337
  O     -188.135     250.156     169.576
  H     -186.749     250.097     168.076
  H     -188.431     249.871     167.556
  H     -187.563     248.552     168.397
  P     -189.421     249.510     170.279
  C     -188.287     247.191     170.279
  O     -188.917     248.200     171.053
  C     -188.698     245.796     170.767
  O     -188.095     244.800     169.885
  C     -188.238     245.466     172.201
  O     -189.205     244.562     172.755
  C     -186.919     244.767     171.925
  O     -186.404     244.115     173.058
  C     -187.340     243.903     170.728
  N     -186.248     243.291     169.983
  C     -186.498     242.080     169.343
  O     -187.579     241.492     169.360
  N     -185.441     241.539     168.663
  C     -184.195     242.081     168.547
  O     -183.295     241.565     167.896
  C     -183.988     243.356     169.249
  C     -185.009     243.897     169.919
  O     -190.610     249.307     169.401
  O     -189.744     250.524     171.478
  H     -190.492     251.098     171.229
  H     -185.633     243.570     172.791
  H     -185.605     240.664     168.190
  H     -183.009     243.809     169.188
  H     -184.890     244.843     170.439
  H     -188.031     243.118     171.060
  H     -186.163     245.499     171.631
  H     -188.156     246.349     172.840
  H     -189.785     245.693     170.666
  H     -187.203     247.311     170.378
  H     -188.565     247.319     169.227
  P     -190.051     244.876     174.081
  C     -191.659     246.377     172.718
  O     -191.535     245.299     173.638
  O     -189.397     245.854     174.999
  O     -190.254     243.458     174.798
  H     -190.371     243.593     175.757
  H     -192.694     246.552     172.511
  H     -191.150     246.131     171.810
  H     -191.226     247.259     173.142

 6  7  8  9  10  11  12  13  14  15  16  27  31  32  33  34  35 0
 6-311+G(2d,p)
 ****
 36  37 0
 6-311+G(2d,p)
 ****
 1  2  3  4  5  17  18  19  20  21  22  23  24  25 0
 3-21G
 ****
 26  28  29  30  38  39  40  41  42  43  44  45 0
 3-21G
 ****


