%nproc=1
%NoSave
%Mem=1900MB
#P OB98/GEN NMR

erre ene a

0 1
  C      803.424     457.626     -87.896
  O      804.230     458.717     -87.431
  P      805.817     458.585     -87.164
  C      805.871     459.631     -84.803
  O      806.086     458.467     -85.581
  C      806.001     459.350     -83.299
  O      805.790     460.578     -82.542
  C      805.024     458.298     -82.761
  O      805.745     457.518     -81.794
  C      803.961     459.167     -82.104
  O      803.145     458.471     -81.167
  C      804.852     460.252     -81.487
  N      804.147     461.456     -81.014
  C      803.502     461.382     -79.784
  O      803.463     460.338     -79.137
  N      802.880     462.523     -79.305
  C      802.896     463.611     -80.002
  N      802.275     464.707     -79.465
  C      803.557     463.720     -81.317
  C      804.162     462.622     -81.756
  O      806.621     459.666     -87.821
  O      806.230     457.148     -87.736
  H      807.123     457.203     -88.129
  H      802.478     459.084     -80.824
  H      803.563     464.654     -81.867
  H      804.697     462.622     -82.698
  H      805.429     459.824     -80.653
  H      803.297     459.569     -82.880
  H      804.636     457.625     -83.529
  H      807.044     459.050     -83.106
  H      801.839     464.593     -78.560
  H      804.859     460.008     -85.007
  H      802.239     465.607     -79.920
  H      806.577     460.412     -85.114
  P      805.854     455.928     -81.960
  C      803.434     455.353     -81.162
  O      804.367     455.362     -82.221
  O      806.115     455.453     -80.446
  O      806.940     455.439     -82.865
  H      806.593     454.605     -80.469
  H      802.464     455.712     -81.528
  H      803.752     455.980     -80.316
  H      803.309     454.318     -80.816
  H      802.410     457.950     -87.998
  H      803.472     456.822     -87.192
  H      803.789     457.292     -88.845

 3  4  5  6  7  8  9  10  11  12  13  24  27  28  29  30  32 0
 6-311+G(2d,p)
 ****
 34  35 0
 6-311+G(2d,p)
 ****
 1  2  14  15  16  17  18  19  20  21  22  23  25  26 0
 3-21G
 ****
 31  33  36  37  38  39  40  41  42  43  44  45  46 0
 3-21G
 ****


