%nproc=1
%NoSave
%Mem=1900MB
#P OB98/GEN NMR

erre ene a

0 1
  C      411.218     636.857     460.731
  O      411.671     637.994     460.022
  H      410.725     637.191     461.648
  H      412.063     636.215     461.004
  H      410.497     636.293     460.131
  P      412.492     637.778     458.662
  C      412.012     636.694     456.373
  O      411.461     637.174     457.592
  C      410.935     636.635     455.284
  O      409.920     635.693     455.721
  C      410.257     637.996     455.053
  O      410.261     638.400     453.689
  C      408.898     637.834     455.739
  O      407.877     638.658     455.222
  C      408.631     636.333     455.621
  N      407.720     635.806     456.637
  C      406.369     635.715     456.299
  O      405.896     636.007     455.204
  N      405.552     635.234     457.288
  C      405.927     634.869     458.542
  O      405.140     634.446     459.383
  C      407.353     635.014     458.846
  C      408.178     635.476     457.899
  O      413.775     637.018     458.794
  O      412.747     639.264     458.125
  H      408.209     639.580     455.219
  H      413.662     639.532     458.318
  H      404.570     635.146     457.049
  H      407.690     634.743     459.842
  H      409.242     635.594     458.088
  H      408.212     636.090     454.647
  H      409.020     638.093     456.795
  H      410.813     638.799     455.555
  H      411.375     636.242     454.366
  H      412.418     635.691     456.562
  H      412.828     637.352     456.048
  P      410.470     639.906     453.189
  C      412.184     641.208     454.681
  O      411.960     640.359     453.571
  O      409.374     640.850     453.524
  O      410.517     639.756     451.583
  H      410.130     640.578     451.217
  H      413.232     641.399     454.778
  H      411.824     640.735     455.571
  H      411.665     642.132     454.534

 6  7  8  9  10  11  12  13  14  15  16  26  31  32  33  34  35 0
 6-311+G(2d,p)
 ****
 36  37 0
 6-311+G(2d,p)
 ****
 1  2  3  4  5  17  18  19  20  21  22  23  24  25 0
 3-21G
 ****
 27  28  29  30  38  39  40  41  42  43  44  45 0
 3-21G
 ****


