%nproc=1
%NoSave
%Mem=1900MB
#P OB98/GEN NMR

erre ene a

0 1
  C     -405.182     -85.875     807.331
  O     -404.455     -87.082     807.192
  P     -403.910     -87.535     805.758
  C     -401.845     -86.038     805.440
  O     -402.317     -87.344     805.744
  C     -400.598     -85.713     806.252
  O     -400.882     -85.758     807.672
  C     -399.456     -86.693     806.051
  O     -398.823     -86.527     804.792
  C     -398.577     -86.374     807.254
  O     -397.777     -85.205     807.004
  C     -399.637     -86.072     808.338
  N     -399.795     -87.173     809.275
  C     -398.998     -87.125     810.417
  O     -398.150     -86.241     810.555
  N     -399.159     -88.100     811.375
  C     -399.970     -89.090     811.156
  N     -400.142     -89.989     812.159
  C     -400.718     -89.255     809.886
  C     -400.598     -88.260     809.012
  O     -404.623     -86.941     804.589
  O     -404.071     -89.130     805.768
  H     -404.530     -89.404     804.951
  H     -397.000     -85.503     806.489
  H     -401.321     -90.136     809.725
  H     -401.126     -88.283     808.066
  H     -399.359     -85.168     808.894
  H     -397.893     -87.188     807.501
  H     -399.831     -87.718     806.137
  H     -400.278     -84.690     805.997
  H     -399.630     -89.830     813.022
  H     -402.638     -85.317     805.669
  H     -400.965     -90.586     812.222
  H     -401.632     -85.973     804.365
  P     -398.235     -87.847     804.099
  C     -400.366     -88.218     802.670
  O     -398.967     -88.016     802.680
  O     -398.838     -89.037     804.983
  O     -396.741     -87.906     804.054
  H     -398.185     -89.754     805.062
  H     -400.748     -87.967     801.678
  H     -400.870     -87.591     803.415
  H     -400.581     -89.272     802.874
  H     -405.461     -85.742     808.356
  H     -406.063     -85.917     806.725
  H     -404.572     -85.053     807.018

 3  4  5  6  7  8  9  10  11  12  13  24  27  28  29  30  32 0
 6-311+G(2d,p)
 ****
 34  35 0
 6-311+G(2d,p)
 ****
 1  2  14  15  16  17  18  19  20  21  22  23  25  26 0
 3-21G
 ****
 31  33  36  37  38  39  40  41  42  43  44  45  46 0
 3-21G
 ****


