%nproc=1
%NoSave
%Mem=1900MB
#P OB98/GEN NMR

erre ene a

0 1
  C       10.959      46.849      37.679
  O        9.655      46.865      38.219
  H       10.966      47.437      36.759
  H       11.251      45.824      37.439
  H       11.673      47.285      38.383
  P        9.444      46.193      39.661
  C        9.694      43.774      40.569
  O       10.070      44.716      39.575
  C       10.152      42.370      40.171
  O        9.354      41.920      39.046
  C       11.625      42.297      39.763
  O       12.173      41.068      40.250
  C       11.577      42.263      38.247
  O       12.727      41.644      37.673
  C       10.256      41.525      37.994
  N        9.716      41.830      36.673
  C       10.167      41.040      35.612
  O       10.989      40.144      35.813
  N        9.727      41.318      34.344
  C        8.969      42.350      34.139
  N        8.590      42.591      32.855
  C        8.523      43.252      35.219
  C        8.923      42.932      36.448
  O        7.870      45.920      39.716
  O        9.922      47.002      40.819
  H       12.707      41.795      36.703
  H        7.530      45.990      40.628
  H        7.913      44.115      34.995
  H        8.651      43.539      37.303
  H       10.401      40.439      38.073
  H       11.519      43.287      37.859
  H       12.219      43.134      40.139
  H        9.942      41.688      41.004
  H        8.931      41.960      32.141
  H        8.604      43.777      40.668
  H        8.040      43.389      32.574
  H       10.137      44.062      41.529
  P       13.160      41.168      41.509
  C       15.616      41.902      41.925
  O       14.619      41.560      40.972
  O       13.321      39.646      41.974
  O       12.638      42.030      42.611
  H       12.845      39.502      42.813
  H       16.528      42.137      41.418
  H       15.778      41.075      42.584
  H       15.293      42.751      42.490

 6  7  8  9  10  11  12  13  14  15  16  26  30  31  32  33  35 0
 6-311+G(2d,p)
 ****
 37  38 0
 6-311+G(2d,p)
 ****
 1  2  3  4  5  17  18  19  20  21  22  23  24  25 0
 3-21G
 ****
 27  28  29  34  36  39  40  41  42  43  44  45  46 0
 3-21G
 ****


