%nproc=1
%NoSave
%Mem=1900MB
#P OB98/GEN NMR

erre ene a

0 1
  C      592.041     362.159     722.131
  O      590.958     361.786     722.958
  H      591.967     361.596     721.193
  H      592.988     361.915     722.612
  H      592.004     363.229     721.894
  P      590.829     362.474     724.398
  C      588.250     362.141     724.342
  O      589.467     361.849     725.017
  C      587.234     361.025     724.578
  O      587.158     360.675     725.987
  C      585.806     361.372     724.187
  O      585.586     361.397     722.796
  C      585.069     360.217     724.864
  O      585.256     359.020     724.108
  C      585.821     360.149     726.224
  N      585.166     360.922     727.278
  C      584.406     360.188     728.206
  O      584.313     358.947     728.122
  N      583.757     360.859     729.214
  C      583.818     362.151     729.273
  N      583.143     362.781     730.280
  C      584.584     362.975     728.297
  C      585.219     362.290     727.341
  O      590.922     363.964     724.432
  O      591.942     361.748     725.290
  H      586.238     358.892     724.025
  H      591.915     362.142     726.200
  H      584.584     364.054     728.375
  H      585.797     362.830     726.591
  H      585.935     359.112     726.551
  H      583.986     360.402     724.960
  H      585.483     362.316     724.657
  H      587.599     360.137     724.047
  H      582.632     362.195     730.926
  H      588.465     362.252     723.279
  H      583.087     363.786     730.363
  H      587.829     363.088     724.722
  P      584.278     362.176     722.280
  C      585.613     363.052     720.203
  O      584.457     362.375     720.695
  O      584.468     363.653     722.872
  O      582.966     361.556     722.675
  H      583.946     363.758     723.701
  H      585.573     363.096     719.135
  H      586.492     362.522     720.505
  H      585.641     364.045     720.600

 6  7  8  9  10  11  12  13  14  15  16  26  30  31  32  33  35 0
 6-311+G(2d,p)
 ****
 37  38 0
 6-311+G(2d,p)
 ****
 1  2  3  4  5  17  18  19  20  21  22  23  24  25 0
 3-21G
 ****
 27  28  29  34  36  39  40  41  42  43  44  45  46 0
 3-21G
 ****


