%nproc=1
%NoSave
%Mem=1900MB
#P OB98/GEN NMR

erre ene a

0 1
  C     -238.166    -112.978     138.610
  O     -237.605    -113.688     139.701
  P     -237.272    -115.240     139.475
  C     -235.268    -116.773     140.110
  O     -235.924    -115.524     140.294
  C     -233.828    -116.697     140.612
  O     -233.088    -115.731     139.848
  C     -233.704    -116.259     142.062
  O     -234.013    -117.327     142.936
  C     -232.245    -115.815     142.118
  O     -231.377    -116.927     142.395
  C     -232.006    -115.270     140.688
  N     -231.886    -113.821     140.658
  C     -230.623    -113.321     140.331
  O     -229.689    -114.095     140.114
  N     -230.438    -111.958     140.303
  C     -231.432    -111.171     140.578
  N     -231.195    -109.833     140.529
  C     -232.777    -111.662     140.945
  C     -232.930    -112.983     140.973
  O     -236.799    -115.295     137.948
  O     -238.407    -116.173     139.750
  H     -231.607    -117.217     143.302
  H     -236.959    -116.177     137.566
  H     -233.568    -110.962     141.168
  H     -233.886    -113.427     141.232
  H     -231.088    -115.694     140.269
  H     -232.076    -115.074     142.902
  H     -234.358    -115.402     142.262
  H     -233.361    -117.681     140.468
  H     -230.263    -109.529     140.281
  H     -235.255    -117.021     139.043
  H     -231.906    -109.139     140.705
  H     -235.827    -117.550     140.642
  P     -233.721    -117.117     144.497
  C     -234.561    -118.246     146.641
  O     -234.536    -118.287     145.227
  O     -234.609    -115.828     144.837
  O     -232.298    -116.941     144.908
  H     -234.437    -115.535     145.752
  H     -235.269    -118.995     147.004
  H     -234.877    -117.260     146.992
  H     -233.568    -118.480     147.038
  H     -238.337    -111.961     138.896
  H     -239.094    -113.430     138.329
  H     -237.490    -113.006     137.781

 3  4  5  6  7  8  9  10  11  12  13  21  23  27  28  29  30  32 0
 6-311+G(2d,p)
 ****
 34  35 0
 6-311+G(2d,p)
 ****
 1  2  14  15  16  17  18  19  20  22  24  25  26 0
 3-21G
 ****
 31  33  36  37  38  39  40  41  42  43  44  45  46 0
 3-21G
 ****


