%nproc=1
%NoSave
%Mem=1900MB
#P OB98/GEN NMR

erre ene a

0 1
  C      300.764    -898.620     720.063
  O      300.537    -897.740     721.185
  P      299.527    -898.080     722.383
  C      301.254    -897.750     724.302
  O      300.021    -897.310     723.698
  C      301.732    -896.760     725.354
  O      302.256    -895.560     724.722
  C      300.654    -896.230     726.306
  O      300.239    -897.210     727.246
  C      301.362    -895.020     726.902
  O      302.182    -895.390     728.012
  C      302.232    -894.500     725.731
  N      301.755    -893.270     725.157
  C      302.313    -892.080     725.680
  O      303.091    -892.140     726.623
  N      301.960    -890.890     725.122
  C      301.030    -890.860     724.199
  N      300.713    -889.650     723.664
  C      300.311    -892.060     723.723
  C      300.730    -893.230     724.221
  O      299.307    -899.540     722.605
  O      298.155    -897.350     721.999
  H      297.401    -897.810     722.429
  H      301.600    -895.770     728.684
  H      299.547    -891.980     722.971
  H      300.282    -894.160     723.912
  H      303.274    -894.390     726.061
  H      300.633    -894.270     727.277
  H      299.787    -895.900     725.721
  H      302.528    -897.230     725.936
  H      301.239    -888.840     724.011
  H      302.011    -897.850     723.514
  H      300.042    -889.510     722.924
  H      301.088    -898.750     724.731
  P      298.801    -897.010     727.900
  C      297.591    -898.930     726.578
  O      298.052    -898.450     727.827
  O      298.004    -896.130     726.846
  O      298.792    -896.390     729.256
  H      297.457    -895.480     727.295
  H      297.560    -900.000     726.599
  H      298.237    -898.590     725.767
  H      296.575    -898.540     726.395
  H      301.477    -898.176     719.400
  H      299.843    -898.779     719.542
  H      301.141    -899.557     720.415

 3  4  5  6  7  8  9  10  11  12  13  24  27  28  29  30  32 0
 6-311+G(2d,p)
 ****
 34  35 0
 6-311+G(2d,p)
 ****
 1  2  14  15  16  17  18  19  20  21  22  23  25  26 0
 3-21G
 ****
 31  33  36  37  38  39  40  41  42  43  44  45  46 0
 3-21G
 ****


