%nproc=1
%NoSave
%Mem=1900MB
#P OB98/GEN NMR

erre ene a

0 1
  C       89.782      50.999     185.948
  O       89.763      50.660     184.558
  P       90.010      51.873     183.528
  C       88.282      50.812     181.904
  O       89.579      51.375     182.062
  C       88.172      49.985     180.621
  O       88.618      50.783     179.498
  C       89.004      48.696     180.616
  O       88.268      47.679     179.921
  C       90.202      49.057     179.755
  O       90.826      47.906     179.192
  C       89.540      49.985     178.738
  N       93.591      50.096     175.714
  C       92.818      49.024     176.113
  N       93.192      47.807     175.661
  N       91.770      49.134     176.888
  C       91.495      50.415     177.237
  C       92.178      51.560     176.897
  C       93.360      51.416     176.075
  O       94.117      52.321     175.730
  N       91.594      52.675     177.448
  C       90.566      52.204     178.123
  N       90.469      50.838     178.033
  O       91.606      51.967     183.454
  O       89.408      53.165     183.967
  H       91.533      48.226     178.600
  H       91.898      52.868     183.691
  H       94.400      49.951     175.134
  H       89.880      52.796     178.712
  H       88.965      49.419     177.995
  H       90.942      49.587     180.365
  H       93.948      47.659     175.010
  H       89.291      48.338     181.608
  H       92.610      47.016     175.907
  H       87.114      49.753     180.454
  H       87.541      51.617     181.876
  H       88.064      50.188     182.777
  P       87.143      46.911     180.769
  C       88.512      44.995     181.875
  O       87.620      45.383     180.847
  O       85.893      46.866     179.770
  O       86.807      47.560     182.070
  H       85.058      46.822     180.273
  H       88.625      45.768     182.638
  H       89.490      44.785     181.434
  H       88.132      44.086     182.347
  H       89.608      50.120     186.532
  H       89.017      51.719     186.150
  H       90.736      51.412     186.201

 3  4  5  6  7  8  9  10  11  12  23  26  30  31  33  0
 6-311+G(2d,p)
 ****
 35  36  37  38 0
 6-311+G(2d,p)
 ****
 1  2  13  14  15  16  17  18  19  20  21  22  24  25  27  28  29 0
 3-21G
 ****
 32  34  39  40  41  42  43  44  45  46  47  48  49 0
 3-21G
 ****


