%nproc=1
%NoSave
%Mem=1900MB
#P OB98/GEN NMR

erre ene a

0 1
  C     -141.520     438.676    1010.871
  O     -140.571     437.674    1011.207
  P     -140.235     437.299    1012.729
  C     -141.881     435.270    1012.777
  O     -140.522     435.715    1012.916
  C     -142.077     433.827    1013.267
  O     -141.502     432.895    1012.325
  C     -141.325     433.614    1014.595
  O     -141.929     433.982    1015.816
  C     -140.835     432.154    1014.532
  O     -141.689     431.274    1015.246
  C     -140.859     431.845    1013.035
  N     -136.747     428.846    1012.959
  C     -138.012     428.579    1013.456
  N     -138.123     427.454    1014.183
  N     -139.038     429.361    1013.270
  C     -138.731     430.507    1012.607
  C     -137.539     430.891    1012.045
  C     -136.419     429.982    1012.230
  O     -135.250     430.229    1011.878
  N     -137.582     432.140    1011.502
  C     -138.814     432.556    1011.764
  N     -139.545     431.618    1012.459
  O     -140.693     438.248    1013.780
  O     -138.617     437.337    1012.708
  H     -141.730     431.553    1016.185
  H     -138.313     437.657    1013.579
  H     -135.986     428.250    1013.203
  H     -139.215     433.527    1011.505
  H     -141.445     430.935    1012.841
  H     -139.857     432.064    1014.999
  H     -137.315     426.901    1014.473
  H     -140.415     434.214    1014.546
  H     -139.004     427.311    1014.703
  H     -143.147     433.563    1013.316
  H     -142.141     435.364    1011.711
  H     -142.537     435.929    1013.337
  P     -141.175     434.331    1017.193
  C     -140.708     436.758    1016.472
  O     -141.300     435.897    1017.449
  O     -139.600     434.150    1016.824
  O     -141.535     433.459    1018.354
  H     -139.086     433.998    1017.639
  H     -140.585     437.752    1016.905
  H     -141.357     436.806    1015.600
  H     -139.730     436.373    1016.175
  H     -141.587     438.761    1009.807
  H     -141.211     439.613    1011.285
  H     -142.477     438.408    1011.268

 3  4  5  6  7  8  9  10  11  12  23  26  30  31 0
 6-311+G(2d,p)
 ****
 33  35  36  37  38 0
 6-311+G(2d,p)
 ****
 1  2  13  14  15  16  17  18  19  20  21  22  24  25 0
 3-21G
 ****
 27  28  29  32  34  39  40  41  42  43  44  45  46  47  48  49 0
 3-21G
 ****


