%nproc=1
%NoSave
%Mem=1900MB
#P OB98/GEN NMR

erre ene a

0 1
  C      679.522     267.853     483.225
  O      679.731     266.446     483.430
  P      681.231     265.897     483.391
  C      681.007     264.874     485.781
  O      681.742     265.723     484.911
  C      681.856     264.497     486.995
  O      682.954     263.624     486.630
  C      682.498     265.674     487.692
  O      681.599     266.333     488.582
  C      683.612     264.990     488.488
  O      683.062     264.407     489.683
  C      684.066     263.900     487.526
  N      689.152     264.495     487.484
  C      688.290     264.134     488.460
  N      686.953     264.023     488.405
  C      686.505     264.298     487.166
  C      687.263     264.670     486.063
  C      688.652     264.758     486.255
  N      689.522     265.121     485.252
  N      686.459     264.875     484.966
  C      685.241     264.621     485.386
  N      685.213     264.274     486.717
  O      682.077     267.157     482.873
  O      681.425     264.703     482.518
  H      682.860     265.141     490.294
  H      682.824     266.852     482.323
  H      688.739     263.922     489.427
  H      684.342     264.677     484.772
  H      684.322     262.971     488.038
  H      684.389     265.692     488.796
  H      682.928     266.385     486.967
  H      681.211     263.954     487.714
  H      680.683     263.975     485.253
  H      690.511     265.136     485.460
  H      689.161     265.302     484.337
  H      680.096     265.391     486.098
  P      681.098     267.800     488.189
  C      678.681     266.882     488.402
  O      679.595     267.628     487.645
  O      681.962     268.132     486.877
  O      681.279     268.817     489.257
  H      682.115     269.093     486.812
  H      677.666     267.108     488.054
  H      678.751     267.134     489.466
  H      678.854     265.811     488.262
  H      678.476     268.070     483.279
  H      679.895     268.132     482.262
  H      680.040     268.404     483.982

 3  4  5  6  7  8  9  10  11  12  22  25  29  30  31  32 0
 6-311+G(2d,p)
 ****
 33  36  37 0
 6-311+G(2d,p)
 ****
 1  2  13  14  15  16  17  18  19  20  21  23  24  26 0
 3-21G
 ****
 27  28  34  35  38  39  40  41  42  43  44  45  46  47  48 0
 3-21G
 ****


