%nproc=1
%NoSave
%Mem=1900MB
#P OB98/GEN NMR

erre ene a

0 1
  C      146.000    -890.962     -82.636
  O      146.660    -892.094     -82.126
  P      147.146    -892.126     -80.598
  C      145.024    -893.494     -79.931
  O      145.841    -892.361     -79.698
  C      145.193    -894.533     -78.814
  O      144.641    -893.968     -77.590
  C      144.437    -895.845     -79.029
  O      144.990    -896.841     -78.163
  C      143.048    -895.486     -78.569
  O      142.262    -896.642     -78.247
  C      143.316    -894.522     -77.373
  N      142.317    -893.443     -77.312
  C      141.287    -893.608     -76.376
  O      141.233    -894.543     -75.581
  N      140.255    -892.684     -76.439
  C      140.174    -891.683     -77.359
  O      139.135    -891.068     -77.606
  C      141.374    -891.428     -78.156
  C      142.377    -892.330     -78.113
  O      147.539    -890.606     -80.323
  O      148.290    -893.049     -80.311
  H      142.039    -897.071     -79.109
  H      148.502    -890.463     -80.437
  H      139.455    -892.882     -75.860
  H      141.408    -890.553     -78.795
  H      143.269    -892.190     -78.734
  H      143.301    -895.060     -76.418
  H      142.530    -894.947     -79.362
  H      144.446    -896.202     -80.074
  H      146.258    -894.721     -78.632
  H      145.293    -893.937     -80.902
  H      143.984    -893.208     -79.981
  P      144.987    -898.364     -78.671
  C      147.419    -898.145     -79.447
  O      146.103    -898.449     -79.833
  O      143.656    -898.948     -79.016
  O      145.695    -899.152     -77.455
  H      145.480    -900.104     -77.519
  H      148.115    -898.716     -80.102
  H      147.619    -898.419     -78.406
  H      147.609    -897.084     -79.602
  H      145.755    -891.125     -83.665
  H      146.640    -890.108     -82.553
  H      145.103    -890.791     -82.078

 3  4  5  6  7  8  9  10  11  12  13  23  28  29  30  31  32 0
 6-311+G(2d,p)
 ****
 33  34 0
 6-311+G(2d,p)
 ****
 1  2  14  15  16  17  18  19  20  21  22  24  25  26  27 0
 3-21G
 ****
 35  36  37  38  39  40  41  42  43  44  45 0
 3-21G
 ****


