%nproc=1
%NoSave
%Mem=1900MB
#P OB98/GEN NMR

erre ene a

0 1
  C      -49.649    -435.026     412.869
  O      -49.859    -433.667     412.535
  H      -50.438    -435.646     412.435
  H      -48.685    -435.345     412.464
  H      -49.633    -435.150     413.956
  P      -51.246    -433.012     413.008
  C      -51.600    -432.066     415.397
  O      -50.890    -431.956     414.169
  C      -51.230    -430.903     416.320
  O      -49.828    -431.030     416.675
  C      -51.440    -429.507     415.707
  O      -52.334    -428.741     416.521
  C      -50.067    -428.861     415.756
  O      -50.104    -427.479     416.127
  C      -49.316    -429.698     416.786
  N      -45.284    -426.632     416.181
  C      -46.481    -426.429     416.771
  N      -47.470    -427.315     416.997
  C      -47.121    -428.538     416.559
  C      -45.930    -428.907     415.958
  C      -44.987    -427.883     415.754
  N      -43.790    -428.080     415.097
  N      -45.938    -430.253     415.637
  C      -47.128    -430.676     416.000
  N      -47.885    -429.675     416.544
  O      -51.966    -434.207     413.793
  O      -52.101    -432.477     411.908
  H      -50.782    -427.058     415.569
  H      -52.892    -434.287     413.494
  H      -46.673    -425.406     417.105
  H      -47.512    -431.684     415.852
  H      -49.495    -429.350     417.813
  H      -49.601    -428.934     414.769
  H      -51.822    -429.551     414.678
  H      -51.807    -431.001     417.245
  H      -51.333    -433.006     415.891
  H      -43.231    -427.266     414.891
  H      -43.608    -428.983     414.677
  H      -52.675    -432.070     415.191
  P      -53.894    -428.790     416.127
  C      -55.712    -430.649     416.300
  O      -54.529    -430.075     416.846
  O      -53.857    -429.212     414.583
  O      -54.611    -427.501     416.339
  H      -54.653    -428.878     414.128
  H      -56.005    -431.492     416.891
  H      -55.524    -430.966     415.295
  H      -56.496    -429.921     416.304

 6  7  8  9  10  11  12  13  14  15  25  28  32  33  34  35 0
 6-311+G(2d,p)
 ****
 36  39  40 0
 6-311+G(2d,p)
 ****
 1  2  3  4  5  16  17  18  19  20  21  22  23  24 0
 3-21G
 ****
 26  27  29  30  31  37  38  41  42  43  44  45  46  47  48 0
 3-21G
 ****


