%nproc=1
%NoSave
%Mem=1900MB
#P OB98/GEN NMR

erre ene a

0 1
  C       48.937     235.438    -244.888
  O       49.684     235.538    -243.691
  H       49.594     235.070    -245.680
  H       48.550     236.417    -245.182
  H       48.110     234.734    -244.764
  P       48.938     236.064    -242.375
  C       49.228     233.893    -241.009
  O       48.320     234.763    -241.670
  C       49.135     234.089    -239.500
  O       47.787     233.862    -239.047
  C       50.028     233.146    -238.696
  O       51.362     233.631    -238.669
  C       49.342     233.205    -237.342
  O       49.681     234.438    -236.679
  C       47.858     233.208    -237.748
  N       45.027     229.703    -235.428
  C       45.491     230.919    -234.963
  N       45.191     231.221    -233.682
  N       46.199     231.750    -235.682
  C       46.480     231.280    -236.919
  C       46.092     230.088    -237.486
  C       45.261     229.201    -236.701
  O       44.814     228.122    -237.080
  N       46.624     229.930    -238.740
  C       47.301     231.043    -238.945
  N       47.257     231.890    -237.864
  O       47.948     237.172    -242.570
  O       50.127     236.486    -241.394
  H       50.641     234.411    -236.517
  H       50.347     237.429    -241.492
  H       44.502     229.098    -234.818
  H       47.835     231.286    -239.855
  H       47.238     233.787    -237.054
  H       49.629     232.389    -236.679
  H       44.907     230.512    -233.018
  H       49.974     232.119    -239.070
  H       45.564     232.084    -233.307
  H       49.375     235.137    -239.282
  H       50.235     234.134    -241.365
  H       49.008     232.850    -241.258
  P       52.583     232.725    -239.189
  C       52.273     233.761    -241.536
  O       52.339     232.569    -240.765
  O       52.765     231.440    -238.457
  O       53.851     233.689    -239.128
  H       54.316     233.678    -238.255
  H       52.108     233.512    -242.564
  H       53.194     234.298    -241.443
  H       51.468     234.370    -241.182

 6  7  8  9  10  11  12  13  14  15  26  29  33  34 0
 6-311+G(2d,p)
 ****
 36  38  39  40  41 0
 6-311+G(2d,p)
 ****
 1  2  3  4  5  16  17  18  19  20  21  22  23  24  25 0
 3-21G
 ****
 27  28  30  31  32  35  37  42  43  44  45  46  47 0
 3-21G
 ****
 48  49 0
 3-21G
 ****


