%nproc=1
%NoSave
%Mem=1900MB
#P OB98/GEN NMR

erre ene a

0 1
  C     -102.529     321.683     -54.008
  O     -101.417     320.987     -54.537
  H     -102.166     322.480     -53.355
  H     -103.153     321.003     -53.422
  H     -103.114     322.129     -54.818
  P     -101.739     319.786     -55.549
  C     -100.167     318.587     -53.878
  O     -100.620     318.683     -55.220
  C      -98.892     317.751     -53.803
  O      -99.101     316.457     -54.396
  C      -97.698     318.354     -54.536
  O      -97.070     319.354     -53.750
  C      -96.815     317.131     -54.701
  O      -96.111     316.866     -53.471
  C      -97.842     316.011     -54.968
  N      -98.105     312.214     -58.415
  C      -97.720     312.225     -57.122
  N      -97.632     313.279     -56.279
  C      -98.003     314.412     -56.896
  C      -98.417     314.555     -58.210
  C      -98.476     313.386     -58.984
  N      -98.883     313.372     -60.302
  N      -98.711     315.875     -58.490
  C      -98.525     316.507     -57.352
  N      -98.059     315.673     -56.364
  O     -101.894     320.169     -56.981
  O     -103.047     319.157     -54.869
  H      -95.610     317.670     -53.241
  H     -102.966     319.169     -53.899
  H      -97.442     311.259     -56.706
  H      -98.728     317.559     -57.180
  H      -97.563     315.078     -54.463
  H      -96.060     317.264     -55.478
  H      -97.986     318.726     -55.527
  H      -98.655     317.589     -52.743
  H     -100.937     318.144     -53.241
  H      -98.731     312.526     -60.830
  H      -99.039     314.262     -60.758
  H      -99.972     319.606     -53.524
  P      -96.749     320.798     -54.366
  C      -94.335     320.770     -53.468
  O      -95.591     321.434     -53.446
  O      -97.930     321.678     -54.572
  O      -95.987     320.487     -55.740
  H      -96.253     321.124     -56.428
  H      -93.650     321.280     -52.823
  H      -93.950     320.768     -54.466
  H      -94.459     319.762     -53.131

 6  7  8  9  10  11  12  13  14  15  25  28  32  33  34  35 0
 6-311+G(2d,p)
 ****
 36  39  40 0
 6-311+G(2d,p)
 ****
 1  2  3  4  5  16  17  18  19  20  21  22  23  24 0
 3-21G
 ****
 26  27  29  30  31  37  38  41  42  43  44  45  46  47 0
 3-21G
 ****
 48 0
 3-21G
 ****


