%nproc=1
%NoSave
%Mem=1900MB
#P OB98/GEN NMR

erre ene a

0 1
  C     -524.347     -95.690     160.111
  O     -523.791     -96.253     158.939
  H     -523.812     -94.776     160.381
  H     -525.396     -95.443     159.920
  H     -524.298     -96.409     160.934
  P     -522.240     -96.652     158.994
  C     -522.304     -98.863     157.642
  O     -522.166     -98.258     158.920
  C     -523.580     -99.702     157.595
  O     -524.709     -98.826     157.850
  C     -523.827    -100.424     156.260
  O     -523.937    -101.833     156.471
  C     -525.177     -99.904     155.791
  O     -526.003    -100.911     155.214
  C     -525.795     -99.329     157.061
  N     -530.108     -97.093     158.592
  C     -529.206     -97.839     159.262
  N     -528.023     -98.317     158.826
  C     -527.791     -97.922     157.559
  C     -528.607     -97.138     156.758
  C     -529.828     -96.728     157.319
  N     -530.773     -96.011     156.622
  N     -528.034     -96.954     155.511
  C     -526.918     -97.650     155.544
  N     -526.740     -98.268     156.755
  O     -521.831     -96.328     160.511
  O     -521.367     -95.934     158.021
  H     -526.378    -101.425     155.951
  H     -521.001     -95.816     160.524
  H     -529.471     -98.100     160.285
  H     -526.229     -97.779     154.719
  H     -526.318    -100.093     157.647
  H     -525.013     -99.120     155.040
  H     -523.047    -100.219     155.520
  H     -523.544    -100.428     158.418
  H     -521.446     -99.518     157.452
  H     -531.664     -95.860     157.060
  H     -530.616     -95.834     155.638
  H     -522.325     -98.084     156.876
  P     -522.705    -102.738     155.966
  C     -523.010    -104.442     157.910
  O     -522.145    -103.540     157.238
  O     -521.561    -101.651     155.680
  O     -523.011    -103.556     154.758
  H     -520.946    -101.986     155.000
  H     -522.489    -104.892     158.729
  H     -523.330    -105.203     157.229
  H     -523.863    -103.911     158.278

 6  7  8  9  10  11  12  13  14  15  25  28  32  33  34  35 0
 6-311+G(2d,p)
 ****
 36  39  40 0
 6-311+G(2d,p)
 ****
 1  2  3  4  5  16  17  18  19  20  21  22  23  24 0
 3-21G
 ****
 26  27  29  30  31  37  38  41  42  43  44  45  46  47  48 0
 3-21G
 ****


