%nproc=1
%NoSave
%Mem=1900MB
#P OB98/GEN NMR

erre ene a

0 1
  C      180.740     256.401    -104.469
  O      180.245     255.143    -104.051
  H      181.711     256.567    -103.994
  H      180.059     257.197    -104.157
  H      180.872     256.427    -105.553
  P      178.901     254.583    -104.720
  C      178.636     252.686    -102.992
  O      178.068     253.861    -103.559
  C      177.701     252.123    -101.924
  O      177.467     253.110    -100.895
  C      176.325     251.739    -102.451
  O      176.368     250.517    -103.159
  C      175.525     251.700    -101.158
  O      175.730     250.461    -100.464
  C      176.138     252.880    -100.375
  N      175.326     254.096    -100.444
  C      174.146     254.095     -99.707
  O      173.762     253.135     -99.047
  N      173.402     255.244     -99.777
  C      173.659     256.316    -100.582
  O      172.908     257.283    -100.677
  C      174.902     256.247    -101.360
  C      175.667     255.159    -101.255
  O      179.086     253.775    -105.961
  O      178.042     255.906    -105.004
  H      175.601     250.651     -99.513
  H      178.068     256.109    -105.960
  H      172.538     255.262     -99.260
  H      175.146     257.084    -102.000
  H      176.586     255.089    -101.825
  H      176.259     252.612     -99.315
  H      174.453     251.796    -101.331
  H      175.927     252.540    -103.085
  H      178.195     251.257    -101.456
  H      179.597     252.944    -102.535
  H      178.804     251.953    -103.788
  P      175.347     250.253    -104.362
  C      175.807     247.728    -104.490
  O      174.834     248.738    -104.246
  O      175.835     250.653    -105.713
  O      174.053     251.103    -103.953
  H      173.879     251.775    -104.640
  H      175.354     246.764    -104.385
  H      176.606     247.825    -103.785
  H      176.192     247.836    -105.483

 6  7  8  9  10  11  12  13  14  15  16  26  31  32  33  34  35 0
 6-311+G(2d,p)
 ****
 36  37 0
 6-311+G(2d,p)
 ****
 1  2  3  4  5  17  18  19  20  21  22  23  24  25 0
 3-21G
 ****
 27  28  29  30  38  39  40  41  42  43  44  45 0
 3-21G
 ****


