%nproc=1
%NoSave
%Mem=1900MB
#P OB98/GEN NMR

erre ene a

0 1
  C       98.624      88.883    -161.329
  O       99.457      88.515    -160.247
  H       99.135      89.606    -161.969
  H       98.398      87.991    -161.917
  H       97.687      89.309    -160.959
  P       99.882      89.689    -159.238
  C       97.947      89.085    -157.618
  O       98.554      90.081    -158.426
  C       97.366      89.714    -156.356
  O       96.716      88.709    -155.552
  C       98.392      90.374    -155.441
  O       98.757      91.666    -155.903
  C       97.605      90.447    -154.141
  O       96.693      91.560    -154.186
  C       96.825      89.125    -154.165
  N       96.953      86.684    -149.670
  C       96.145      87.657    -150.146
  N       96.158      88.242    -151.362
  C       97.124      87.709    -152.129
  C       98.010      86.701    -151.793
  C       97.904      86.180    -150.495
  N       98.783      85.231    -149.996
  N       98.867      86.432    -152.844
  C       98.516      87.281    -153.787
  N       97.463      88.068    -153.406
  O      100.112      90.935    -160.221
  O      101.088      89.406    -158.409
  H       96.089      91.396    -154.935
  H      101.064      91.014    -160.418
  H       95.389      88.017    -149.457
  H       98.994      87.362    -154.755
  H       95.805      89.239    -153.783
  H       98.243      90.585    -153.263
  H       99.268      89.733    -155.294
  H       96.597      90.437    -156.663
  H       98.696      88.338    -157.338
  H       98.914      85.286    -148.990
  H       99.615      85.096    -150.556
  H       97.157      88.598    -158.199
  P       99.860      92.473    -155.064
  C      101.618      91.347    -156.591
  O      101.248      91.686    -155.262
  O       99.457      92.158    -153.548
  O       99.906      93.940    -155.318
  H       99.315      92.995    -153.064
  H      102.555      90.830    -156.580
  H      101.710      92.239    -157.174
  H      100.868      90.716    -157.020

 6  7  8  9  10  11  12  13  14  15  25  28  32  33  34  35 0
 6-311+G(2d,p)
 ****
 36  39  40 0
 6-311+G(2d,p)
 ****
 1  2  3  4  5  16  17  18  19  20  21  22  23  24 0
 3-21G
 ****
 26  27  29  30  31  37  38  41  42  43  44  45  46  47  48 0
 3-21G
 ****


