%nproc=1
%NoSave
%Mem=1900MB
#P OB98/GEN NMR

erre ene a

0 1
  C     -280.888    -472.505    -132.472
  O     -281.752    -472.814    -131.395
  P     -282.760    -474.053    -131.584
  C     -281.900    -475.870    -129.937
  O     -281.910    -475.379    -131.273
  C     -281.978    -477.397    -129.905
  O     -283.165    -477.820    -130.619
  C     -280.771    -478.097    -130.534
  O     -280.501    -479.271    -129.768
  C     -281.276    -478.508    -131.902
  O     -280.544    -479.615    -132.425
  C     -282.757    -478.788    -131.608
  N     -283.583    -478.711    -132.807
  C     -283.627    -479.847    -133.618
  O     -282.928    -480.823    -133.350
  N     -284.423    -479.833    -134.736
  C     -285.033    -478.740    -135.075
  N     -285.812    -478.774    -136.191
  C     -284.913    -477.481    -134.313
  C     -284.198    -477.543    -133.191
  O     -282.965    -474.108    -133.167
  O     -284.053    -473.920    -130.847
  H     -281.048    -479.977    -133.191
  H     -283.861    -474.426    -133.392
  H     -285.413    -476.588    -134.658
  H     -284.075    -476.677    -132.557
  H     -282.878    -479.787    -131.165
  H     -281.177    -477.669    -132.603
  H     -279.881    -477.463    -130.565
  H     -282.098    -477.712    -128.862
  H     -285.868    -479.646    -136.700
  H     -282.769    -475.472    -129.405
  H     -286.323    -477.971    -136.531
  H     -280.997    -475.517    -129.429
  P     -279.078    -479.373    -129.037
  C     -279.983    -478.738    -126.721
  O     -279.170    -478.346    -127.807
  O     -278.137    -478.563    -130.057
  O     -278.521    -480.728    -128.752
  H     -277.213    -478.605    -129.753
  H     -279.848    -478.021    -125.906
  H     -279.699    -479.733    -126.368
  H     -281.035    -478.733    -127.023
  H     -280.278    -471.666    -132.210
  H     -281.469    -472.267    -133.338
  H     -280.264    -473.348    -132.682

 3  4  5  6  7  8  9  10  11  12  13  21  23  27  28  29  30  32 0
 6-311+G(2d,p)
 ****
 34  35 0
 6-311+G(2d,p)
 ****
 1  2  14  15  16  17  18  19  20  22  24  25  26 0
 3-21G
 ****
 31  33  36  37  38  39  40  41  42  43  44  45  46 0
 3-21G
 ****


