%nproc=1
%NoSave
%Mem=1900MB
#P OB98/GEN NMR

erre ene a

0 1
  C      494.532     -66.405    -865.585
  O      494.201     -67.777    -865.664
  H      495.100     -66.207    -864.672
  H      495.147     -66.139    -866.448
  H      493.623     -65.795    -865.594
  P      493.289     -68.376    -864.486
  C      494.990     -67.838    -862.596
  O      494.308     -68.840    -863.335
  C      495.082     -68.253    -861.131
  O      493.798     -68.112    -860.485
  C      495.496     -69.712    -860.920
  O      496.898     -69.891    -861.022
  C      495.016     -69.925    -859.498
  O      495.943     -69.314    -858.571
  C      493.682     -69.165    -859.495
  N      490.362     -72.615    -857.677
  C      491.414     -71.984    -857.113
  N      492.248     -71.083    -857.655
  C      491.920     -70.849    -858.938
  C      490.884     -71.425    -859.661
  C      490.076     -72.345    -858.966
  N      489.012     -73.003    -859.553
  N      490.879     -70.965    -860.958
  C      491.875     -70.101    -861.020
  N      492.541     -70.008    -859.825
  O      492.764     -69.761    -865.088
  O      492.178     -67.494    -864.016
  H      496.161     -68.440    -858.933
  H      491.960     -70.050    -864.609
  H      491.605     -72.234    -856.069
  H      492.151     -69.525    -861.887
  H      493.472     -68.689    -858.529
  H      494.945     -70.979    -859.221
  H      494.955     -70.381    -861.595
  H      495.789     -67.573    -860.628
  H      494.436     -66.897    -862.670
  H      488.624     -73.774    -859.034
  H      488.892     -72.919    -860.554
  H      495.988     -67.695    -863.021
  P      497.442     -70.645    -862.331
  C      496.268     -72.914    -861.879
  O      497.501     -72.202    -861.951
  O      498.992     -70.220    -862.372
  O      496.730     -70.303    -863.592
  H      499.334     -70.249    -863.284
  H      496.460     -73.934    -861.618
  H      495.778     -72.875    -862.829
  H      495.641     -72.467    -861.136

 6  7  8  9  10  11  12  13  14  15  25  28  32  33  34  35 0
 6-311+G(2d,p)
 ****
 36  39  40 0
 6-311+G(2d,p)
 ****
 1  2  3  4  5  16  17  18  19  20  21  22  23  24 0
 3-21G
 ****
 26  27  29  30  31  37  38  41  42  43  44  45  46  47 0
 3-21G
 ****
 48 0
 3-21G
 ****


