%nproc=1
%NoSave
%Mem=1900MB
#P OB98/GEN NMR

erre ene a

0 1
  C     -514.665    -408.361    -110.013
  O     -513.390    -408.803    -110.430
  H     -515.392    -408.600    -110.794
  H     -514.660    -407.278    -109.852
  H     -514.954    -408.873    -109.091
  P     -512.162    -408.496    -109.444
  C     -511.084    -410.835    -109.386
  O     -511.011    -409.514    -109.909
  C     -511.971    -411.710    -110.273
  O     -511.352    -411.823    -111.580
  C     -512.167    -413.132    -109.730
  O     -513.494    -413.570    -110.035
  C     -511.173    -413.948    -110.537
  O     -511.524    -415.330    -110.590
  C     -511.217    -413.222    -111.883
  N     -508.873    -416.645    -114.832
  C     -510.126    -416.589    -114.335
  N     -510.677    -415.620    -113.572
  C     -509.808    -414.612    -113.382
  C     -508.501    -414.526    -113.828
  C     -508.028    -415.619    -114.581
  N     -506.743    -415.704    -115.065
  N     -507.917    -413.357    -113.392
  C     -508.860    -412.737    -112.703
  N     -510.013    -413.469    -112.656
  O     -512.485    -408.524    -107.987
  O     -511.630    -407.093    -110.003
  H     -510.981    -415.762    -111.284
  H     -511.552    -407.104    -110.975
  H     -510.767    -417.433    -114.570
  H     -508.754    -411.774    -112.210
  H     -512.071    -413.529    -112.502
  H     -510.176    -413.874    -110.090
  H     -511.989    -413.211    -108.660
  H     -512.933    -411.204    -110.417
  H     -511.485    -410.817    -108.367
  H     -506.491    -416.522    -115.597
  H     -506.099    -414.947    -114.895
  H     -510.065    -411.239    -109.350
  P     -514.500    -413.893    -108.832
  C     -516.620    -413.548    -110.257
  O     -515.877    -414.451    -109.449
  O     -514.657    -412.817    -107.810
  O     -513.858    -415.213    -108.182
  H     -513.906    -415.143    -107.204
  H     -517.509    -414.031    -110.607
  H     -516.025    -413.246    -111.094
  H     -516.885    -412.688    -109.679

 6  7  8  9  10  11  12  13  14  15  25  28  32  33  34  35 0
 6-311+G(2d,p)
 ****
 36  39  40 0
 6-311+G(2d,p)
 ****
 1  2  3  4  5  16  17  18  19  20  21  22  23  24 0
 3-21G
 ****
 26  27  29  30  31  37  38  41  42  43  44  45  46  47 0
 3-21G
 ****
 48 0
 3-21G
 ****


