%nproc=1
%NoSave
%Mem=1900MB
#P OB98/GEN NMR

erre ene a

0 1
  C      166.709    -570.520     -52.640
  O      165.984    -569.928     -51.550
  P      166.719    -569.816     -50.127
  C      166.863    -567.218     -50.099
  O      167.563    -568.458     -50.112
  C      167.531    -566.235     -49.136
  O      168.913    -565.992     -49.492
  C      166.856    -564.874     -49.091
  O      165.723    -564.868     -48.224
  C      167.965    -564.019     -48.492
  O      168.007    -564.204     -47.059
  C      169.219    -564.614     -49.140
  N      172.155    -560.877     -50.882
  C      171.985    -561.349     -49.600
  N      172.714    -560.743     -48.632
  N      171.177    -562.333     -49.279
  C      170.535    -562.857     -50.349
  C      170.615    -562.468     -51.673
  C      171.497    -561.382     -52.003
  O      171.680    -560.902     -53.122
  N      169.800    -563.233     -52.459
  C      169.238    -564.094     -51.628
  N      169.639    -563.894     -50.331
  O      167.862    -570.939     -50.226
  O      165.826    -570.046     -48.953
  H      168.238    -565.138     -46.902
  H      168.074    -571.272     -49.338
  H      172.786    -560.116     -51.072
  H      168.547    -564.875     -51.918
  H      170.080    -564.638     -48.457
  H      167.813    -562.948     -48.669
  H      173.391    -560.016     -48.806
  H      166.612    -564.518     -50.095
  H      172.632    -561.097     -47.680
  H      167.508    -566.680     -48.126
  H      165.821    -567.377     -49.807
  H      166.836    -566.819     -51.117
  P      165.103    -563.448     -47.814
  C      162.973    -563.671     -49.294
  O      164.198    -562.993     -49.054
  O      166.369    -562.470     -47.879
  O      164.446    -563.415     -46.483
  H      166.273    -561.751     -47.228
  H      162.415    -563.128     -50.064
  H      162.371    -563.713     -48.383
  H      163.181    -564.686     -49.655
  H      166.095    -570.525     -53.516
  H      166.977    -571.524     -52.386
  H      167.595    -569.951     -52.829

 3  4  5  6  7  8  9  10  11  12  23  26  30  31 0
 6-311+G(2d,p)
 ****
 33  35  36  37  38 0
 6-311+G(2d,p)
 ****
 1  2  13  14  15  16  17  18  19  20  21  22  24  25 0
 3-21G
 ****
 27  28  29  32  34  39  40  41  42  43  44  45  46  47  48  49 0
 3-21G
 ****


