%nproc=1
%NoSave
%Mem=1900MB
#P OB98/GEN NMR

erre ene a

0 1
  C     -392.551    -167.990     -13.523
  O     -392.905    -166.814     -12.796
  P     -392.372    -166.658     -11.294
  C     -394.382    -165.405     -10.261
  O     -393.014    -165.328     -10.658
  C     -395.015    -164.004     -10.235
  O     -394.192    -163.131      -9.415
  C     -395.115    -163.311     -11.602
  O     -396.286    -163.536     -12.387
  C     -395.136    -161.844     -11.196
  O     -396.477    -161.460     -10.825
  C     -394.234    -161.796      -9.967
  N     -391.444    -157.842     -11.636
  C     -392.773    -157.994     -11.441
  N     -393.440    -159.079     -10.995
  C     -392.583    -160.081     -10.724
  C     -391.209    -160.072     -10.869
  C     -390.632    -158.887     -11.356
  N     -389.277    -158.737     -11.564
  N     -390.672    -161.288     -10.502
  C     -391.713    -162.024     -10.158
  N     -392.891    -161.333     -10.262
  O     -390.903    -166.816     -11.099
  O     -393.176    -167.819     -10.523
  H     -396.727    -162.024     -10.071
  H     -392.589    -168.214      -9.850
  H     -393.387    -157.124     -11.677
  H     -391.659    -163.051      -9.829
  H     -394.632    -161.136      -9.183
  H     -394.834    -161.179     -12.011
  H     -394.222    -163.518     -12.211
  H     -396.007    -164.065      -9.774
  H     -394.450    -165.856      -9.265
  H     -388.952    -157.872     -11.955
  H     -388.663    -159.524     -11.414
  H     -394.889    -166.078     -10.950
  P     -396.189    -163.882     -13.949
  C     -398.162    -162.792     -15.282
  O     -397.705    -163.860     -14.481
  O     -395.433    -165.119     -14.281
  O     -395.573    -162.538     -14.564
  H     -396.171    -161.770     -14.527
  H     -399.130    -163.071     -15.713
  H     -397.464    -162.585     -16.089
  H     -398.299    -161.900     -14.663
  H     -392.979    -167.946     -14.502
  H     -392.922    -168.852     -13.009
  H     -391.486    -168.053     -13.602

 3  4  5  6  7  8  9  10  11  12  22  25  29  30  31  32 0
 6-311+G(2d,p)
 ****
 33  36  37 0
 6-311+G(2d,p)
 ****
 1  2  13  14  15  16  17  18  19  20  21  23  24  26 0
 3-21G
 ****
 27  28  34  35  38  39  40  41  42  43  44  45  46  47  48 0
 3-21G
 ****


