%nproc=1
%NoSave
%Mem=1900MB
#P OB98/GEN NMR

erre ene a

0 1
  C     -727.087     185.924     708.115
  O     -726.401     185.586     706.925
  H     -727.463     186.946     708.027
  H     -726.410     185.869     708.972
  H     -727.942     185.251     708.275
  P     -725.910     184.074     706.720
  C     -723.789     184.589     708.101
  O     -724.313     184.082     706.886
  C     -722.257     184.714     708.025
  O     -721.696     183.371     707.923
  C     -721.745     185.509     706.799
  O     -720.512     186.127     707.195
  C     -721.511     184.388     705.801
  O     -720.782     184.804     704.680
  C     -720.858     183.348     706.736
  N     -720.756     182.002     706.197
  C     -719.487     181.499     705.952
  O     -718.435     182.105     706.161
  N     -719.436     180.230     705.439
  C     -720.507     179.429     705.168
  O     -720.404     178.281     704.734
  C     -721.836     180.007     705.441
  C     -721.886     181.259     705.943
  O     -726.421     183.389     705.497
  O     -726.396     183.334     708.059
  H     -727.206     182.822     707.873
  H     -721.374     185.301     704.078
  H     -718.528     179.848     705.263
  H     -722.704     179.417     705.233
  H     -722.855     181.715     706.162
  H     -719.865     183.693     707.044
  H     -722.469     184.020     705.424
  H     -722.451     186.275     706.466
  H     -721.885     185.145     708.961
  H     -724.063     183.902     708.915
  H     -724.233     185.572     708.304
  P     -720.422     187.587     707.857
  C     -718.821     188.515     706.037
  O     -719.024     188.246     707.413
  O     -720.666     187.605     709.335
  O     -721.516     188.468     707.079
  H     -721.813     189.198     707.659
  H     -717.853     188.949     705.897
  H     -719.571     189.196     705.692
  H     -718.886     187.603     705.482

 6  7  8  9  10  11  12  13  14  15  16  27  31  32  33  34  35 0
 6-311+G(2d,p)
 ****
 36  37 0
 6-311+G(2d,p)
 ****
 1  2  3  4  5  17  18  19  20  21  22  23  24  25 0
 3-21G
 ****
 26  28  29  30  38  39  40  41  42  43  44  45 0
 3-21G
 ****


