%nproc=1
%NoSave
%Mem=1900MB
#P OB98/GEN NMR

erre ene a

0 1
  C      354.738     199.000     348.468
  O      354.296     199.543     347.241
  H      355.783     199.291     348.624
  H      354.678     197.909     348.431
  H      354.138     199.382     349.297
  P      352.730     199.405     346.914
  C      353.193     197.443     345.280
  O      352.493     197.891     346.431
  C      352.985     195.939     345.090
  O      353.557     195.207     346.198
  C      351.522     195.513     345.008
  O      350.986     195.695     343.706
  C      351.637     194.038     345.357
  O      352.128     193.306     344.209
  C      352.698     194.057     346.461
  N      352.348     191.859     351.016
  C      352.984     191.424     349.874
  N      353.615     190.232     349.942
  N      353.007     192.101     348.751
  C      352.328     193.270     348.821
  C      351.654     193.805     349.895
  C      351.648     193.053     351.135
  O      351.119     193.400     352.185
  N      351.100     195.020     349.590
  C      351.412     195.212     348.329
  N      352.154     194.173     347.803
  O      352.552     200.253     345.563
  O      351.808     199.897     347.984
  H      351.482     193.452     343.491
  H      351.683     200.701     345.588
  H      352.351     191.293     351.851
  H      351.131     196.076     347.742
  H      353.333     193.164     346.452
  H      350.684     193.595     345.634
  H      353.599     189.635     350.756
  H      350.909     196.022     345.775
  H      354.118     189.907     349.123
  H      353.527     195.634     344.182
  H      354.262     197.646     345.406
  H      352.824     197.988     344.403
  P      349.388     195.821     343.561
  C      349.132     193.404     342.643
  O      348.825     194.324     343.690
  O      349.187     196.165     342.007
  O      348.756     196.844     344.449
  H      348.332     196.608     341.875
  H      348.694     192.453     342.864
  H      350.194     193.297     342.562
  H      348.739     193.772     341.718

 6  7  8  9  10  11  12  13  14  15  26  29  33  34 0
 6-311+G(2d,p)
 ****
 36  38  39  40  41 0
 6-311+G(2d,p)
 ****
 1  2  3  4  5  16  17  18  19  20  21  22  23  24  25 0
 3-21G
 ****
 27  28  30  31  32  35  37  42  43  44  45  46  47 0
 3-21G
 ****
 48  49 0
 3-21G
 ****


