%nproc=1
%NoSave
%Mem=1900MB
#P OB98/GEN NMR

erre ene a

0 1
  C       -9.805     567.004     456.586
  O      -10.242     567.883     455.570
  H       -9.680     567.573     457.514
  H       -8.841     566.560     456.314
  H      -10.543     566.215     456.753
  P      -10.505     567.235     454.127
  C       -9.138     568.306     452.190
  O       -9.142     567.409     453.299
  C       -9.229     569.744     452.689
  O       -8.274     569.952     453.760
  C       -8.900     570.787     451.637
  O       -9.973     571.013     450.742
  C       -8.567     571.990     452.507
  O       -9.754     572.687     452.909
  C       -7.891     571.348     453.726
  N       -3.968     574.512     454.538
  C       -5.292     574.642     454.764
  N       -6.273     573.744     454.535
  C       -5.759     572.603     454.036
  C       -4.437     572.326     453.755
  C       -3.512     573.342     454.034
  N       -2.162     573.226     453.778
  N       -4.306     571.064     453.218
  C       -5.532     570.576     453.179
  N       -6.445     571.473     453.669
  O      -11.508     568.275     453.440
  O      -11.068     565.854     454.144
  H      -10.250     572.875     452.088
  H      -12.422     567.943     453.499
  H       -5.610     575.596     455.178
  H       -5.808     569.599     452.804
  H       -8.217     571.798     454.668
  H       -7.933     572.691     451.975
  H       -7.993     570.494     451.081
  H      -10.233     569.903     453.103
  H       -9.996     568.090     451.540
  H       -8.213     568.156     451.615
  H       -1.569     574.020     453.938
  H       -1.825     572.404     453.295
  P       -9.630     571.611     449.294
  C      -10.730     573.970     449.053
  O       -9.589     573.204     449.432
  O      -10.958     571.338     448.438
  O       -8.428     571.016     448.648
  H      -10.720     571.126     447.519
  H      -10.530     575.009     449.210
  H      -11.570     573.675     449.646
  H      -10.946     573.800     448.019

 6  7  8  9  10  11  12  13  14  15  25  28  32  33  34  35 0
 6-311+G(2d,p)
 ****
 36  37  40 0
 6-311+G(2d,p)
 ****
 1  2  3  4  5  16  17  18  19  20  21  22  23  24 0
 3-21G
 ****
 26  27  29  30  31  38  39 41  42  43  44  45  46  47  48 0
 3-21G
 ****


