%nproc=1
%NoSave
%Mem=1900MB
#P OB98/GEN NMR

erre ene a

0 1
  C      309.858      69.580    -547.897
  O      308.626      70.022    -548.435
  H      310.653      70.232    -548.263
  H      310.066      68.556    -548.221
  H      309.829      69.631    -546.805
  P      307.325      69.167    -548.049
  C      307.383      68.334    -550.498
  O      306.598      68.886    -549.449
  C      306.492      67.682    -551.552
  O      305.829      66.530    -550.997
  C      305.389      68.592    -552.088
  O      305.892      69.430    -553.117
  C      304.411      67.566    -552.639
  O      304.846      67.126    -553.941
  C      304.526      66.412    -551.628
  N      300.604      63.769    -549.619
  C      301.302      63.610    -550.766
  N      302.294      64.376    -551.262
  C      302.560      65.410    -550.440
  C      301.927      65.704    -549.242
  C      300.907      64.824    -548.828
  N      300.198      64.998    -547.660
  N      302.460      66.846    -548.674
  C      303.436      67.191    -549.488
  N      303.511      66.376    -550.589
  O      306.473      69.741    -546.968
  O      307.984      67.745    -547.711
  H      305.771      66.843    -553.844
  H      308.692      67.537    -548.348
  H      301.024      62.745    -551.362
  H      304.125      68.011    -549.318
  H      304.493      65.430    -552.127
  H      303.400      67.973    -552.759
  H      304.900      69.162    -551.286
  H      307.136      67.333    -552.368
  H      308.081      67.588    -550.094
  H      299.365      64.443    -547.539
  H      300.340      65.854    -547.141
  H      307.966      69.146    -550.943
  P      306.146      70.994    -552.865
  C      303.616      71.417    -553.085
  O      304.913      71.729    -553.579
  O      307.505      71.467    -553.247
  O      305.833      71.195    -551.307
  H      306.207      72.047    -551.001
  H      302.882      71.966    -553.638
  H      303.555      71.682    -552.050
  H      303.435      70.368    -553.196

 6  7  8  9  10  11  12  13  14  15  25  28  32  33  34  35 0
 6-311+G(2d,p)
 ****
 36  39  40 0
 6-311+G(2d,p)
 ****
 1  2  3  4  5  16  17  18  19  20  21  22  23  24 0
 3-21G
 ****
 26  27  29  30  31  37  38  41  42  43  44  45  46  47 0
 3-21G
 ****
 48 0
 3-21G
 ****


