%nproc=1
%NoSave
%Mem=1900MB
#P OB98/GEN NMR

erre ene a

0 1
  C     -125.075    -444.868    -159.879
  O     -123.709    -445.241    -159.723
  P     -122.905    -446.184    -160.729
  C     -122.798    -448.763    -161.204
  O     -123.447    -447.682    -160.549
  C     -122.831    -450.072    -160.386
  O     -121.806    -450.024    -159.359
  C     -124.168    -450.215    -159.660
  O     -125.294    -450.746    -160.336
  C     -123.825    -450.938    -158.365
  O     -123.995    -452.351    -158.462
  C     -122.351    -450.590    -158.147
  N     -119.488    -449.296    -154.109
  C     -119.362    -450.378    -154.957
  N     -118.376    -451.259    -154.671
  N     -120.141    -450.586    -155.986
  C     -121.136    -449.678    -156.106
  C     -121.378    -448.575    -155.320
  C     -120.472    -448.320    -154.214
  O     -120.529    -447.369    -153.440
  N     -122.492    -447.895    -155.734
  C     -122.939    -448.596    -156.755
  N     -122.146    -449.688    -157.026
  O     -121.424    -446.002    -160.743
  O     -123.465    -445.748    -162.180
  H     -123.509    -452.657    -159.253
  H     -122.725    -445.856    -162.808
  H     -118.844    -449.171    -153.346
  H     -123.826    -448.354    -157.336
  H     -121.758    -451.492    -157.932
  H     -124.483    -450.601    -157.550
  H     -117.824    -451.222    -153.828
  H     -124.478    -449.202    -159.358
  H     -118.421    -452.157    -155.153
  H     -122.588    -450.928    -161.018
  H     -121.767    -448.452    -161.385
  H     -123.251    -448.929    -162.185
  P     -126.229    -449.967    -161.376
  C     -128.054    -448.172    -161.225
  O     -127.369    -449.214    -160.547
  O     -127.046    -451.135    -162.110
  O     -125.504    -449.119    -162.369
  H     -127.451    -450.801    -162.929
  H     -128.565    -447.546    -160.491
  H     -128.797    -448.608    -161.905
  H     -127.357    -447.557    -161.798
  H     -125.366    -444.233    -159.069
  H     -125.686    -445.746    -159.881
  H     -125.199    -444.345    -160.804

 3  4  5  6  7  8  9  10  11  12  23  26  30  31 0
 6-311+G(2d,p)
 ****
 33  35  36  37  38 0
 6-311+G(2d,p)
 ****
 1  2  13  14  15  16  17  18  19  20  21  22  24  25 0
 3-21G
 ****
 27  28  29  32  34  39  40  41  42  43  44  45  46  47  48  49 0
 3-21G
 ****


