%nproc=1
%NoSave
%Mem=1900MB
#P OB98/GEN NMR

erre ene a

0 1
  C     -695.182    -150.571      32.724
  O     -694.277    -151.189      33.638
  P     -694.806    -152.421      34.507
  C     -693.441    -151.866      36.643
  O     -693.679    -152.809      35.595
  C     -692.378    -152.389      37.619
  O     -692.990    -153.398      38.483
  C     -691.182    -153.082      36.954
  O     -690.061    -152.285      36.589
  C     -690.706    -154.006      38.079
  O     -689.861    -153.265      38.995
  C     -691.997    -154.405      38.787
  N     -691.170    -159.452      39.107
  C     -690.503    -158.387      39.625
  N     -690.795    -157.077      39.493
  C     -691.895    -156.905      38.742
  C     -692.677    -157.886      38.152
  C     -692.268    -159.215      38.345
  N     -692.938    -160.299      37.815
  N     -693.720    -157.327      37.461
  C     -693.567    -156.018      37.606
  N     -692.479    -155.718      38.389
  O     -695.380    -153.572      33.755
  O     -695.931    -151.734      35.440
  H     -689.435    -153.929      39.567
  H     -696.667    -152.363      35.553
  H     -689.631    -158.624      40.219
  H     -694.207    -155.271      37.173
  H     -691.892    -154.424      39.882
  H     -690.104    -154.846      37.714
  H     -691.500    -153.689      36.097
  H     -692.032    -151.572      38.256
  H     -694.380    -151.685      37.185
  H     -692.555    -161.213      37.972
  H     -693.731    -160.140      37.210
  H     -693.153    -150.921      36.180
  P     -690.024    -151.495      35.196
  C     -687.536    -152.133      34.627
  O     -688.471    -151.133      34.953
  O     -690.957    -150.340      35.095
  O     -690.281    -152.666      34.126
  H     -689.552    -153.309      34.052
  H     -686.615    -151.660      34.300
  H     -687.923    -152.764      33.823
  H     -687.329    -152.740      35.511
  H     -694.686    -149.768      32.219
  H     -696.025    -150.189      33.261
  H     -695.513    -151.293      32.007

 3  4  5  6  7  8  9  10  11  12  22  25  29  30  31  32 0
 6-311+G(2d,p)
 ****
 33  36  37 0
 6-311+G(2d,p)
 ****
 1  2  13  14  15  16  17  18  19  20  21  23  24  26 0
 3-21G
 ****
 27  28  34  35  38  39  40  41  42  43  44  45  46  47  48 0
 3-21G
 ****


