%nproc=1
%NoSave
%Mem=1900MB
#P OB98/GEN NMR

erre ene a

0 1
  C      368.726    -793.440    1345.830
  O      369.932    -793.072    1345.196
  H      367.893    -793.283    1345.136
  H      368.556    -792.830    1346.720
  H      368.755    -794.499    1346.106
  P      371.289    -793.102    1346.044
  C      372.157    -795.391    1345.205
  O      372.333    -793.986    1345.197
  C      372.740    -796.029    1343.929
  O      371.988    -795.541    1342.777
  C      374.225    -795.670    1343.683
  O      374.820    -796.774    1342.988
  C      374.098    -794.461    1342.780
  O      375.329    -794.150    1342.162
  C      372.929    -794.899    1341.889
  N      372.344    -793.790    1341.155
  C      373.104    -793.268    1340.104
  O      374.219    -793.723    1339.847
  N      372.590    -792.213    1339.379
  C      371.455    -791.688    1339.718
  N      371.016    -790.641    1338.986
  C      370.645    -792.188    1340.868
  C      371.149    -793.229    1341.526
  O      371.144    -793.495    1347.482
  O      371.876    -791.615    1345.895
  H      376.001    -793.875    1342.834
  H      371.729    -791.123    1346.722
  H      369.706    -791.701    1341.113
  H      370.633    -793.663    1342.377
  H      373.268    -795.659    1341.154
  H      373.812    -793.566    1343.354
  H      374.777    -795.465    1344.614
  H      372.594    -797.109    1343.974
  H      371.593    -790.319    1338.203
  H      371.079    -795.587    1345.249
  H      370.148    -790.129    1339.174
  H      372.630    -795.839    1346.083
  P      376.100    -797.559    1343.534
  C      375.257    -799.988    1343.839
  O      376.040    -799.086    1343.061
  O      376.336    -797.396    1345.013
  O      377.350    -796.956    1342.701
  H      378.149    -796.981    1343.260
  H      375.308    -800.967    1343.409
  H      374.240    -799.657    1343.852
  H      375.636    -800.018    1344.839

 6  7  8  9  10  11  12  13  14  15  16  26  30  31  32  33  35 0
 6-311+G(2d,p)
 ****
 37  38 0
 6-311+G(2d,p)
 ****
 1  2  3  4  5  17  18  19  20  21  22  23  24  25 0
 3-21G
 ****
 27  28  29  34  36  39  40  41  42  43  44  45  46 0
 3-21G
 ****


