%nproc=1
%NoSave
%Mem=1900MB
#P OB98/GEN NMR

erre ene a

0 1
  C       10.328     300.880     -41.054
  O       10.930     301.959     -40.362
  P       11.708     303.062     -41.234
  C       13.896     302.156     -40.153
  O       13.229     302.566     -41.340
  C       14.737     300.912     -40.418
  O       13.904     299.812     -40.846
  C       15.771     301.081     -41.523
  O       16.945     301.734     -41.070
  C       16.069     299.632     -41.873
  O       16.988     299.073     -40.916
  C       14.687     298.976     -41.736
  N       14.345     296.228     -45.974
  C       15.022     295.964     -44.797
  N       15.759     294.832     -44.770
  N       14.980     296.732     -43.741
  C       14.207     297.835     -43.913
  C       13.486     298.204     -45.028
  C       13.553     297.347     -46.196
  O       13.019     297.556     -47.282
  N       12.816     299.385     -44.825
  C       13.128     299.728     -43.589
  N       14.003     298.844     -43.010
  O       11.802     304.317     -40.241
  O       11.047     303.412     -42.527
  H       16.566     299.159     -40.040
  H       12.004     305.127     -40.747
  H       14.420     295.606     -46.760
  H       12.761     300.610     -43.083
  H       14.750     297.985     -41.278
  H       16.525     299.519     -42.860
  H       15.889     294.229     -45.571
  H       15.340     301.588     -42.399
  H       16.318     294.644     -43.946
  H       15.223     300.620     -39.477
  H       13.152     301.937     -39.382
  H       14.531     302.974     -39.793
  P       17.161     303.255     -41.542
  C       18.496     302.250     -43.531
  O       17.505     303.168     -43.105
  O       18.551     303.654     -40.861
  O       16.054     304.181     -41.162
  H       18.597     304.614     -40.717
  H       18.419     302.131     -44.621
  H       18.365     301.276     -43.062
  H       19.493     302.645     -43.293
  H        9.850     300.229     -40.353
  H       11.078     300.337     -41.590
  H        9.601     301.259     -41.742

 3  4  5  6  7  8  9  10  11  12  23  26  30  31 0
 6-311+G(2d,p)
 ****
 33  35  36  37  38 0
 6-311+G(2d,p)
 ****
 1  2  13  14  15  16  17  18  19  20  21  22  24  25 0
 3-21G
 ****
 27  28  29  32  34  39  40  41  42  43  44  45  46  47  48  49 0
 3-21G
 ****


