%nproc=1
%NoSave
%Mem=1900MB
#P OB98/GEN NMR

erre ene a

0 1
  C     -194.675    -468.500    -287.993
  O     -194.339    -467.888    -289.221
  H     -194.721    -469.582    -288.144
  H     -195.653    -468.150    -287.653
  H     -193.918    -468.281    -287.238
  P     -194.191    -466.284    -289.223
  C     -196.619    -465.709    -289.957
  O     -195.667    -465.731    -288.901
  C     -197.764    -464.745    -289.620
  O     -198.667    -464.667    -290.748
  C     -198.584    -465.184    -288.399
  O     -198.854    -464.043    -287.584
  C     -199.864    -465.745    -288.988
  O     -200.961    -465.656    -288.080
  C     -200.005    -464.926    -290.280
  N     -200.794    -465.628    -291.289
  C     -202.181    -465.671    -291.090
  O     -202.682    -465.139    -290.094
  N     -202.959    -466.351    -291.990
  C     -202.400    -466.993    -292.965
  N     -203.224    -467.671    -293.813
  C     -200.940    -467.023    -293.185
  C     -200.209    -466.320    -292.321
  O     -193.989    -465.948    -290.772
  O     -193.118    -465.742    -288.338
  H     -200.683    -466.068    -287.231
  H     -193.674    -465.022    -290.902
  H     -200.521    -467.586    -294.005
  H     -199.128    -466.286    -292.405
  H     -200.488    -463.958    -290.072
  H     -199.718    -466.801    -289.236
  H     -198.076    -465.936    -287.792
  H     -197.346    -463.742    -289.478
  H     -204.221    -467.643    -293.623
  H     -197.016    -466.719    -290.103
  H     -202.896    -468.231    -294.588
  H     -196.124    -465.375    -290.878
  P     -198.002    -463.929    -286.225
  C     -200.055    -463.920    -284.638
  O     -198.869    -464.597    -285.050
  O     -198.035    -462.360    -285.892
  O     -196.611    -464.454    -286.347
  H     -197.206    -461.935    -286.178
  H     -200.528    -464.474    -283.854
  H     -200.724    -463.835    -285.469
  H     -199.803    -462.943    -284.282

 6  7  8  9  10  11  12  13  14  15  16  26  30  31  32  33  35 0
 6-311+G(2d,p)
 ****
 37  38 0
 6-311+G(2d,p)
 ****
 1  2  3  4  5  17  18  19  20  21  22  23  24  25 0
 3-21G
 ****
 27  28  29  34  36  39  40  41  42  43  44  45  46 0
 3-21G
 ****


