%nproc=1
%NoSave
%Mem=1900MB
#P OB98/GEN NMR

erre ene a

0 1
  C      149.521     136.258    -234.426
  O      148.741     135.630    -233.428
  P      147.140     135.712    -233.472
  C      146.774     133.429    -232.330
  O      146.635     134.843    -232.218
  C      146.144     132.726    -231.127
  O      146.873     133.032    -229.922
  C      144.702     133.129    -230.856
  O      143.826     132.494    -231.769
  C      144.541     132.686    -229.408
  O      144.243     131.284    -229.322
  C      145.938     132.984    -228.822
  N      145.962     134.211    -228.037
  C      145.019     134.295    -227.006
  O      144.211     133.383    -226.825
  N      144.983     135.434    -226.238
  C      145.799     136.409    -226.495
  N      145.706     137.515    -225.707
  C      146.786     136.372    -227.592
  C      146.811     135.255    -228.317
  O      146.519     135.368    -234.783
  O      146.844     137.216    -233.004
  H      143.962     131.122    -228.400
  H      147.056     137.865    -233.718
  H      147.438     137.213    -227.775
  H      147.502     135.144    -229.144
  H      146.267     132.159    -228.176
  H      143.728     133.219    -228.904
  H      144.604     134.219    -230.920
  H      146.208     131.642    -231.297
  H      144.996     137.512    -224.986
  H      147.840     133.191    -232.369
  H      146.267     138.341    -225.843
  H      146.311     133.093    -233.263
  P      142.446     133.197    -232.169
  C      142.943     132.610    -234.617
  O      141.981     132.596    -233.581
  O      142.434     134.687    -232.077
  O      141.392     132.560    -231.144
  H      140.818     133.268    -230.797
  H      142.639     131.898    -235.388
  H      143.931     132.328    -234.241
  H      142.991     133.609    -235.056
  H      150.559     136.092    -234.225
  H      149.322     137.309    -234.426
  H      149.273     135.848    -235.383

 3  4  5  6  7  8  9  10  11  12  13  23  27  28  29  30  32 0
 6-311+G(2d,p)
 ****
 34  35 0
 6-311+G(2d,p)
 ****
 1  2  14  15  16  17  18  19  20  21  22  24  25  26 0
 3-21G
 ****
 31  33  36  37  38  39  40  41  42  43  44  45  46 0
 3-21G
 ****


