%nproc=1
%NoSave
%Mem=1900MB
#P OB98/GEN NMR

erre ene a

0 1
  C        7.431     -13.921      27.919
  O        7.027     -12.915      27.018
  H        7.006     -14.874      27.592
  H        7.051     -13.692      28.918
  H        8.519     -14.016      27.954
  P        7.847     -11.543      26.979
  C        9.152     -12.231      24.861
  O        9.235     -11.811      26.217
  C        9.644     -11.148      23.902
  O        8.699     -10.057      23.875
  C       10.990     -10.555      24.328
  O       12.121     -11.264      23.852
  C       10.925      -9.156      23.720
  O       11.419      -9.150      22.370
  C        9.428      -8.829      23.745
  N        6.814      -4.679      25.189
  C        7.031      -5.167      23.913
  N        6.515      -4.432      22.904
  N        7.703      -6.260      23.666
  C        8.241      -6.829      24.768
  C        8.112      -6.427      26.078
  C        7.304      -5.258      26.350
  O        7.068      -4.795      27.461
  N        8.834      -7.231      26.926
  C        9.465      -8.061      26.119
  N        9.075      -7.908      24.810
  O        8.321     -11.349      28.500
  O        7.079     -10.345      26.510
  H       11.470      -8.221      22.072
  H        8.377     -10.399      28.705
  H        6.264      -3.850      25.319
  H       10.175      -8.818      26.432
  H        9.105      -8.365      22.804
  H       11.545      -8.457      24.285
  H        6.065      -3.542      23.032
  H       11.041     -10.451      25.415
  H        6.811      -4.650      21.951
  H        9.690     -11.558      22.886
  H        8.101     -12.452      24.668
  H        9.715     -13.157      24.714
  P       13.602     -10.780      24.207
  C       14.016     -12.367      26.256
  O       13.866     -11.057      25.755
  O       13.489      -9.186      24.130
  O       14.680     -11.308      23.319
  H       13.820      -8.858      23.273
  H       14.184     -12.328      27.312
  H       14.850     -12.838      25.779
  H       13.128     -12.929      26.057

 6  7  8  9  10  11  12  13  14  15  26  29  33  34 0
 6-311+G(2d,p)
 ****
 36  38  39  40  41 0
 6-311+G(2d,p)
 ****
 1  2  3  4  5  16  17  18  19  20  21  22  23  24  25 0
 3-21G
 ****
 27  28  30  31  32  35  37  42  43  44  45  46  47 0
 3-21G
 ****
 48  49 0
 3-21G
 ****


