%nproc=1
%NoSave
%Mem=1900MB
#P OB98/GEN NMR

erre ene a

0 1
  C     -273.168    -128.869     107.277
  O     -272.738    -127.544     107.520
  P     -271.284    -127.312     108.146
  C     -270.592    -125.256     106.710
  O     -270.927    -125.754     107.998
  C     -270.564    -123.725     106.723
  O     -271.933    -123.216     106.746
  C     -269.834    -123.123     107.931
  O     -269.201    -121.911     107.493
  C     -270.977    -122.786     108.872
  O     -270.625    -121.832     109.860
  C     -272.029    -122.310     107.864
  N     -273.376    -122.275     108.422
  C     -273.905    -121.026     108.736
  O     -273.307    -119.964     108.573
  N     -275.146    -121.036     109.314
  C     -275.855    -122.141     109.682
  O     -276.911    -122.080     110.306
  C     -275.247    -123.432     109.327
  C     -274.056    -123.442     108.724
  O     -270.309    -128.025     107.092
  O     -271.103    -127.854     109.525
  H     -271.443    -121.379     110.138
  H     -270.047    -128.908     107.413
  H     -275.554    -120.136     109.538
  H     -275.791    -124.330     109.585
  H     -273.575    -124.380     108.467
  H     -271.759    -121.313     107.490
  H     -271.302    -123.699     109.388
  H     -269.097    -123.798     108.382
  H     -270.108    -123.379     105.787
  H     -271.337    -125.596     105.991
  H     -269.620    -125.658     106.402
  P     -267.686    -121.642     107.964
  C     -267.086    -120.278     105.813
  O     -267.206    -120.308     107.222
  O     -266.920    -122.811     107.185
  O     -267.501    -121.684     109.447
  H     -267.227    -122.917     106.268
  H     -267.844    -120.902     105.333
  H     -266.092    -120.635     105.531
  H     -267.204    -119.247     105.469
  H     -274.154    -128.853     106.861
  H     -273.178    -129.415     108.197
  H     -272.498    -129.341     106.589

 3  4  5  6  7  8  9  10  11  12  13  23  28  29  30  31  32 0
 6-311+G(2d,p)
 ****
 33  34 0
 6-311+G(2d,p)
 ****
 1  2  14  15  16  17  18  19  20  21  22  24  25  26 0
 3-21G
 ****
 27  35  36  37  38  39  40  41  42  43  44  45 0
 3-21G
 ****


