%nproc=1
%NoSave
%Mem=1900MB
#P OB98/GEN NMR

erre ene a

0 1
  C      318.275    -771.016     591.490
  O      317.112    -771.478     592.158
  P      316.808    -773.052     592.135
  C      317.034    -774.950     590.354
  O      317.202    -773.562     590.661
  C      317.802    -775.299     589.084
  O      319.231    -775.223     589.303
  C      317.554    -776.708     588.573
  O      316.343    -776.809     587.829
  C      318.750    -776.905     587.662
  O      318.522    -776.252     586.390
  C      319.867    -776.187     588.442
  N      324.581    -777.766     589.354
  C      324.143    -776.679     588.616
  N      325.103    -775.953     587.995
  N      322.899    -776.338     588.511
  C      322.045    -777.168     589.185
  C      322.369    -778.271     589.947
  C      323.767    -778.639     590.051
  O      324.211    -779.620     590.641
  N      321.247    -778.849     590.469
  C      320.247    -778.100     590.043
  N      320.682    -777.092     589.225
  O      315.209    -773.126     592.145
  O      317.422    -773.819     593.266
  H      318.399    -775.308     586.587
  H      314.919    -774.023     592.404
  H      325.572    -777.992     589.404
  H      319.207    -778.262     590.284
  H      320.531    -775.630     587.759
  H      318.959    -777.964     587.452
  H      326.081    -776.195     587.989
  H      317.588    -777.444     589.387
  H      324.790    -775.179     587.392
  H      317.544    -774.541     588.308
  H      315.980    -775.165     590.228
  H      317.401    -775.539     591.196
  P      315.795    -778.281     587.543
  C      316.815    -780.141     586.026
  O      316.518    -778.755     586.196
  O      314.273    -778.029     587.099
  O      315.897    -779.220     588.713
  H      313.732    -778.816     587.290
  H      317.043    -780.319     584.973
  H      315.959    -780.764     586.302
  H      317.680    -780.415     586.632
  H      318.345    -769.953     591.590
  H      318.217    -771.273     590.453
  H      319.140    -771.473     591.923

 3  4  5  6  7  8  9  10  11  12  23  26  30  31 0
 6-311+G(2d,p)
 ****
 33  35  36  37  38 0
 6-311+G(2d,p)
 ****
 1  2  13  14  15  16  17  18  19  20  21  22  24  25 0
 3-21G
 ****
 27  28  29  32  34  39  40  41  42  43  44  45  46  47  48  49 0
 3-21G
 ****


