%nproc=1
%NoSave
%Mem=1900MB
#P OB98/GEN NMR

erre ene a

0 1
  C      220.618     172.498    -325.315
  O      219.691     172.694    -324.268
  H      220.150     171.952    -326.137
  H      220.945     173.474    -325.684
  H      221.490     171.948    -324.951
  P      219.055     171.376    -323.609
  C      221.052     170.278    -322.375
  O      219.883     171.076    -322.263
  C      221.748     170.183    -321.018
  O      222.788     169.177    -321.107
  C      222.393     171.494    -320.536
  O      221.853     171.874    -319.266
  C      223.863     171.148    -320.350
  O      224.436     171.737    -319.184
  C      223.859     169.627    -320.268
  N      227.816     166.748    -318.848
  C      226.552     166.823    -318.378
  N      225.516     167.532    -318.868
  C      225.877     168.196    -319.979
  C      227.119     168.198    -320.590
  C      228.127     167.443    -319.967
  N      229.429     167.411    -320.414
  N      227.112     169.010    -321.711
  C      225.899     169.521    -321.749
  N      225.123     169.074    -320.711
  O      219.520     170.209    -324.602
  O      217.573     171.403    -323.445
  H      224.658     172.659    -319.417
  H      218.756     169.643    -324.824
  H      226.347     166.243    -317.484
  H      225.544     170.248    -322.468
  H      223.666     169.268    -319.250
  H      224.423     171.498    -321.225
  H      222.269     172.314    -321.252
  H      221.017     169.827    -320.282
  H      221.740     170.732    -323.095
  H      230.110     166.939    -319.841
  H      229.691     168.012    -321.182
  H      220.773     169.284    -322.738
  P      221.133     173.311    -319.189
  C      218.732     172.359    -319.512
  O      219.633     173.069    -318.671
  O      220.934     173.696    -320.731
  O      221.919     174.343    -318.453
  H      220.908     174.665    -320.833
  H      217.780     172.281    -319.029
  H      219.118     171.379    -319.701
  H      218.620     172.883    -320.438

 6  7  8  9  10  11  12  13  14  15  25  28  32  33  34  35 0
 6-311+G(2d,p)
 ****
 36  39  40 0
 6-311+G(2d,p)
 ****
 1  2  3  4  5  16  17  18  19  20  21  22  23  24 0
 3-21G
 ****
 26  27  29  30  31  37  38  41  42  43  44  45  46  47  48 0
 3-21G
 ****


