%nproc=1
%NoSave
%Mem=1900MB
#P OB98/GEN NMR

erre ene a

0 1
  C      558.618     769.583    -511.148
  O      557.247     769.882    -511.312
  H      559.058     770.327    -510.479
  H      559.129     769.627    -512.112
  H      558.742     768.590    -510.709
  P      556.356     768.829    -512.132
  C      555.136     768.509    -509.860
  O      555.628     767.890    -511.045
  C      553.891     767.780    -509.364
  O      552.785     768.065    -510.255
  C      554.059     766.267    -509.291
  O      553.373     765.774    -508.120
  C      553.343     765.753    -510.526
  O      552.881     764.409    -510.399
  C      552.234     766.805    -510.696
  N      551.760     766.879    -512.076
  C      550.933     765.828    -512.507
  O      550.662     764.906    -511.747
  N      550.510     765.823    -513.811
  C      550.947     766.728    -514.645
  N      550.510     766.644    -515.930
  C      551.865     767.816    -514.239
  C      552.231     767.822    -512.959
  O      557.442     767.844    -512.781
  O      555.432     769.422    -513.148
  H      552.238     764.379    -509.647
  H      557.135     767.504    -513.649
  H      552.210     768.524    -514.969
  H      552.910     768.581    -512.573
  H      551.381     766.570    -510.040
  H      554.033     765.795    -511.392
  H      555.101     765.940    -509.246
  H      553.621     768.188    -508.376
  H      549.890     765.882    -516.162
  H      554.870     769.548    -510.085
  H      550.812     767.270    -516.661
  H      555.927     768.508    -509.087
  P      554.283     765.343    -506.891
  C      553.628     767.457    -505.500
  O      554.682     766.678    -506.059
  O      555.669     764.902    -507.561
  O      553.709     764.245    -506.059
  H      555.766     763.931    -507.522
  H      554.041     768.299    -504.985
  H      553.068     766.858    -504.813
  H      552.984     767.799    -506.283

 6  7  8  9  10  11  12  13  14  15  16  26  30  31  32  33  35 0
 6-311+G(2d,p)
 ****
 37  38 0
 6-311+G(2d,p)
 ****
 1  2  3  4  5  17  18  19  20  21  22  23  24  25 0
 3-21G
 ****
 27  28  29  34  36  39  40  41  42  43  44  45  46 0
 3-21G
 ****


