%nproc=1
%NoSave
%Mem=1900MB
#P OB98/GEN NMR

erre ene a

0 1
  C      356.467      85.940     291.575
  O      357.646      86.419     292.189
  H      356.669      85.775     290.513
  H      355.661      86.679     291.663
  H      356.156      84.994     292.023
  P      357.600      86.784     293.750
  C      356.043      88.829     293.482
  O      356.190      87.509     293.996
  C      355.554      89.773     294.577
  O      355.390      91.107     294.054
  C      354.207      89.383     295.188
  O      354.377      88.371     296.166
  C      353.780      90.712     295.791
  O      354.507      90.945     297.014
  C      354.236      91.711     294.711
  N      351.632      95.414     292.419
  C      352.478      95.469     293.509
  N      352.628      96.679     294.095
  N      353.110      94.435     293.996
  C      352.813      93.276     293.355
  C      351.978      93.093     292.275
  C      351.338      94.261     291.707
  O      350.598      94.258     290.724
  N      351.851      91.761     291.961
  C      352.646      91.151     292.814
  N      353.249      92.025     293.690
  O      358.775      87.545     294.284
  O      357.415      85.373     294.479
  H      354.192      91.791     297.380
  H      358.277      84.984     294.721
  H      351.168      96.244     292.094
  H      352.832      90.084     292.841
  H      354.565      92.660     295.142
  H      352.718      90.745     296.036
  H      352.055      97.481     293.861
  H      353.488      89.094     294.418
  H      353.196      96.728     294.933
  H      356.337      89.823     295.350
  H      355.315      88.783     292.662
  H      356.998      89.190     293.081
  P      353.271      87.226     296.395
  C      352.689      88.107     298.755
  O      352.228      87.848     297.439
  O      353.819      85.893     296.770
  O      352.422      87.227     295.039
  H      352.827      86.664     294.331
  H      351.891      88.518     299.338
  H      353.500      88.804     298.718
  H      353.024      87.194     299.202

 6  7  8  9  10  11  12  13  14  15  26  29  33  34 0
 6-311+G(2d,p)
 ****
 36  38  39  40  41 0
 6-311+G(2d,p)
 ****
 1  2  3  4  5  16  17  18  19  20  21  22  23  24  25 0
 3-21G
 ****
 27  28  30  31  32  35  37  42  43  44  45  46  47 0
 3-21G
 ****
 48  49 0
 3-21G
 ****


