%nproc=1
%NoSave
%Mem=1900MB
#P OB98/GEN NMR

erre ene a

0 1
  C      108.076     583.734     568.927
  O      108.705     584.734     569.711
  P      108.684     586.265     569.257
  C      111.283     586.256     568.882
  O      109.996     586.555     568.393
  C      112.140     585.726     567.716
  O      111.583     584.502     567.198
  C      112.216     586.739     566.575
  O      113.375     587.545     566.692
  C      112.218     585.852     565.348
  O      113.539     585.341     565.093
  C      111.279     584.703     565.788
  N      109.819     584.910     565.665
  C      109.209     584.778     564.419
  O      109.811     584.458     563.394
  N      107.861     585.051     564.385
  C      107.090     585.386     565.460
  O      105.960     585.858     565.380
  C      107.733     585.246     566.772
  C      109.048     585.037     566.812
  O      108.966     587.049     570.625
  O      107.424     586.723     568.596
  H      113.542     584.998     564.179
  H      108.133     587.379     571.009
  H      107.440     585.087     563.462
  H      107.124     585.360     567.657
  H      109.553     584.972     567.774
  H      111.516     583.770     565.264
  H      111.931     586.404     564.453
  H      111.308     587.355     566.552
  H      113.154     585.505     568.096
  H      111.218     585.498     569.673
  H      111.740     587.143     569.314
  P      113.280     588.969     567.421
  C      113.871     590.191     565.239
  O      112.900     590.007     566.251
  O      114.453     589.346     568.256
  O      111.937     588.848     568.288
  H      112.165     588.618     569.214
  H      113.426     590.774     564.428
  H      114.199     589.228     564.841
  H      114.728     590.743     565.643
  H      108.201     582.781     569.397
  H      108.520     583.712     567.954
  H      107.033     583.954     568.838

 3  4  5  6  7  8  9  10  11  12  13  23  28  29  30  31  32 0
 6-311+G(2d,p)
 ****
 33  34 0
 6-311+G(2d,p)
 ****
 1  2  14  15  16  17  18  19  20  21  22  24  25  26  27 0
 3-21G
 ****
 35  36  37  38  39  40  41  42  43  44  45 0
 3-21G
 ****


