%nproc=1
%NoSave
%Mem=1900MB
#P OB98/GEN NMR

erre ene a

0 1
  C       84.514     786.745      46.146
  O       83.780     787.886      45.754
  H       84.212     785.903      45.507
  H       84.291     786.485      47.183
  H       85.591     786.912      46.016
  P       84.139     789.297      46.421
  C       84.293     790.556      44.172
  O       83.621     790.433      45.424
  C       83.346     791.179      43.136
  O       82.233     790.291      42.884
  C       82.739     792.499      43.575
  O       83.665     793.560      43.465
  C       81.543     792.590      42.626
  O       81.954     793.077      41.335
  C       81.093     791.120      42.547
  N       79.949     790.821      43.403
  C       78.745     791.452      43.092
  O       78.646     792.255      42.167
  N       77.690     791.159      43.905
  C       77.731     790.392      45.043
  O       76.768     790.240      45.795
  C       79.035     789.779      45.335
  C       80.063     790.003      44.512
  O       85.552     789.454      46.882
  O       83.116     789.401      47.655
  H       82.419     793.920      41.490
  H       83.597     789.227      48.489
  H       76.819     791.620      43.703
  H       79.097     789.146      46.222
  H       81.030     789.558      44.721
  H       80.823     790.857      41.512
  H       80.774     793.270      42.995
  H       82.360     792.422      44.605
  H       83.909     791.303      42.193
  H       84.595     789.562      43.842
  H       85.176     791.185      44.306
  P       83.355     794.967      44.160
  C       84.518     794.761      46.460
  O       84.588     795.310      45.134
  O       81.998     795.092      44.789
  O       83.535     796.029      42.976
  H       82.700     796.506      42.838
  H       85.386     795.053      47.013
  H       84.475     793.693      46.402
  H       83.641     795.128      46.952

 6  7  8  9  10  11  12  13  14  15  16  26  31  32  33  34  35 0
 6-311+G(2d,p)
 ****
 36  37 0
 6-311+G(2d,p)
 ****
 1  2  3  4  5  17  18  19  20  21  22  23  24  25 0
 3-21G
 ****
 27  28  29  30  38  39  40  41  42  43  44  45 0
 3-21G
 ****


