%nproc=1
%NoSave
%Mem=1900MB
#P OB98/GEN NMR

erre ene a

0 1
  C      537.032     516.728    -153.708
  O      535.884     516.523    -154.498
  H      536.833     516.391    -152.687
  H      537.292     517.792    -153.683
  H      537.881     516.147    -154.100
  P      535.969     516.772    -156.075
  C      536.935     518.713    -157.482
  O      536.261     518.344    -156.287
  C      537.347     520.180    -157.406
  O      538.399     520.359    -156.425
  C      537.905     520.734    -158.717
  O      536.881     520.974    -159.664
  C      538.638     521.966    -158.216
  O      537.731     523.061    -158.046
  C      539.185     521.499    -156.850
  N      540.613     521.157    -156.928
  C      541.498     522.221    -156.910
  O      541.145     523.396    -156.837
  N      542.817     521.901    -157.050
  C      543.313     520.656    -157.341
  O      544.469     520.456    -157.695
  C      542.340     519.560    -157.274
  C      541.047     519.847    -157.083
  O      534.842     516.222    -156.883
  O      537.365     516.096    -156.484
  H      537.189     515.225    -156.896
  H      538.280     523.826    -157.763
  H      543.471     522.677    -157.088
  H      542.694     518.541    -157.420
  H      540.303     519.059    -157.069
  H      539.051     522.274    -156.090
  H      539.419     522.281    -158.918
  H      538.645     520.025    -159.123
  H      536.477     520.768    -157.081
  H      536.258     518.561    -158.325
  H      537.815     518.072    -157.610
  P      537.214     520.920    -161.234
  C      539.305     521.510    -162.604
  O      538.469     521.882    -161.514
  O      536.044     521.148    -162.137
  O      537.824     519.462    -161.458
  H      537.364     519.036    -162.222
  H      540.103     522.216    -162.698
  H      538.730     521.499    -163.507
  H      539.710     520.535    -162.427

 6  7  8  9  10  11  12  13  14  15  16  27  31  32  33  34  35 0
 6-311+G(2d,p)
 ****
 36  37 0
 6-311+G(2d,p)
 ****
 1  2  3  4  5  17  18  19  20  21  22  23  24  25 0
 3-21G
 ****
 26  28  29  30  38  39  40  41  42  43  44  45 0
 3-21G
 ****


