%nproc=1
%NoSave
%Mem=1900MB
#P OB98/GEN NMR

erre ene a

0 1
  C     -468.737    -725.017     450.176
  O     -467.850    -723.981     450.523
  H     -468.491    -725.897     450.775
  H     -468.627    -725.279     449.122
  H     -469.770    -724.726     450.387
  P     -467.947    -722.568     449.762
  C     -465.622    -722.084     448.778
  O     -466.486    -721.909     449.897
  C     -464.152    -722.078     449.208
  O     -463.752    -720.723     449.547
  C     -463.868    -722.963     450.433
  O     -462.711    -723.773     450.190
  C     -463.564    -721.959     451.538
  O     -462.753    -722.504     452.576
  C     -462.931    -720.820     450.729
  N     -462.887    -719.574     451.476
  C     -461.742    -719.367     452.261
  O     -460.848    -720.207     452.281
  N     -461.672    -718.242     453.043
  C     -462.674    -717.411     453.073
  N     -462.544    -716.330     453.879
  C     -463.903    -717.615     452.286
  C     -463.949    -718.696     451.517
  O     -469.082    -721.705     450.207
  O     -468.020    -722.946     448.203
  H     -463.305    -723.111     453.114
  H     -468.429    -722.192     447.717
  H     -464.716    -716.897     452.346
  H     -464.815    -718.924     450.894
  H     -461.914    -721.083     450.413
  H     -464.504    -721.622     451.982
  H     -464.705    -723.616     450.696
  H     -463.538    -722.385     448.349
  H     -461.687    -716.240     454.406
  H     -465.818    -721.273     448.060
  H     -463.270    -715.632     454.008
  H     -465.862    -723.049     448.317
  P     -462.985    -725.311     449.819
  C     -460.867    -726.252     450.993
  O     -461.571    -726.068     449.778
  O     -463.439    -725.239     448.287
  O     -464.029    -725.946     450.672
  H     -464.391    -725.452     448.208
  H     -459.950    -726.769     450.799
  H     -461.465    -726.828     451.668
  H     -460.654    -725.299     451.429

 6  7  8  9  10  11  12  13  14  15  16  26  30  31  32  33  35 0
 6-311+G(2d,p)
 ****
 37  38 0
 6-311+G(2d,p)
 ****
 1  2  3  4  5  17  18  19  20  21  22  23  24  25 0
 3-21G
 ****
 27  28  29  34  36  39  40  41  42  43  44  45  46 0
 3-21G
 ****


