%nproc=1
%NoSave
%Mem=1900MB
#P OB98/GEN NMR

erre ene a

0 1
  C     -168.020    2000.998     652.153
  O     -168.055    1999.592     652.340
  H     -168.371    2001.474     653.072
  H     -168.672    2001.291     651.337
  H     -166.990    2001.322     651.955
  P     -167.775    1998.626     651.084
  C     -165.622    1997.997     652.317
  O     -166.175    1998.408     651.080
  C     -164.098    1998.003     652.303
  O     -163.622    1997.051     651.320
  C     -163.490    1999.383     651.944
  O     -162.434    1999.689     652.844
  C     -162.927    1999.176     650.529
  O     -161.889    2000.088     650.229
  C     -162.541    1997.687     650.611
  N     -162.367    1997.076     649.270
  C     -162.387    1995.661     649.238
  O     -162.520    1995.002     650.283
  N     -162.232    1995.037     648.036
  C     -161.990    1995.737     646.968
  N     -161.805    1995.063     645.810
  C     -161.910    1997.224     646.969
  C     -162.115    1997.813     648.156
  O     -168.346    1999.122     649.777
  O     -168.344    1997.204     651.545
  H     -161.109    1999.880     650.814
  H     -168.498    1996.638     650.750
  H     -161.708    1997.764     646.068
  H     -162.064    1998.884     648.253
  H     -161.610    1997.562     651.166
  H     -163.730    1999.320     649.783
  H     -164.223    2000.199     651.957
  H     -163.721    1997.664     653.262
  H     -161.898    1994.043     645.852
  H     -165.985    1996.989     652.547
  H     -161.650    1995.498     644.911
  H     -165.969    1998.698     653.107
  P     -162.778    2000.783     653.984
  C     -163.199    1999.060     655.864
  O     -163.743    2000.091     655.059
  O     -163.751    2001.801     653.200
  O     -161.576    2001.487     654.537
  H     -163.255    2002.599     652.935
  H     -163.951    1998.693     656.531
  H     -162.378    1999.446     656.431
  H     -162.857    1998.262     655.239

 6  7  8  9  10  11  12  13  14  15  16  26  30  31  32  33  35 0
 6-311+G(2d,p)
 ****
 37  38 0
 6-311+G(2d,p)
 ****
 1  2  3  4  5  17  18  19  20  21  22  23  24  25 0
 3-21G
 ****
 27  28  29  34  36  39  40  41  42  43  44  45  46 0
 3-21G
 ****


