%nproc=1
%NoSave
%Mem=1900MB
#P OB98/GEN NMR

erre ene a

0 1
  C      331.678    -389.629     131.534
  O      332.987    -389.368     131.993
  H      331.101    -390.081     132.345
  H      331.719    -390.336     130.701
  H      331.181    -388.708     131.216
  P      333.884    -388.362     131.122
  C      335.509    -390.275     130.461
  O      335.358    -388.996     131.061
  C      336.722    -391.000     131.046
  O      336.359    -391.524     132.362
  C      337.221    -392.182     130.195
  O      338.652    -392.238     130.276
  C      336.656    -393.386     130.929
  O      337.392    -394.574     130.661
  C      336.756    -392.907     132.374
  N      336.608    -397.249     134.889
  C      337.654    -396.623     134.243
  N      338.838    -397.276     134.207
  N      337.554    -395.449     133.674
  C      336.321    -394.895     133.802
  C      335.202    -395.416     134.410
  C      335.324    -396.723     135.023
  O      334.429    -397.340     135.590
  N      334.130    -394.566     134.268
  C      334.596    -393.554     133.561
  N      335.919    -393.708     133.253
  O      334.054    -387.107     132.103
  O      333.302    -387.966     129.804
  H      337.045    -395.287     131.234
  H      333.374    -386.436     131.901
  H      336.735    -398.162     135.296
  H      334.016    -392.702     133.233
  H      337.779    -392.966     132.768
  H      335.611    -393.548     130.637
  H      339.002    -398.170     134.647
  H      336.910    -392.138     129.146
  H      339.624    -396.810     133.771
  H      337.525    -390.272     131.203
  H      335.657    -390.152     129.384
  H      334.599    -390.858     130.623
  P      339.462    -392.690     128.967
  C      341.545    -393.755     130.109
  O      341.030    -392.698     129.313
  O      339.308    -391.431     127.992
  O      338.943    -393.938     128.334
  H      339.259    -391.735     127.067
  H      342.597    -393.617     130.248
  H      341.370    -394.689     129.618
  H      341.056    -393.755     131.061

 6  7  8  9  10  11  12  13  14  15  26  29  33  34 0
 6-311+G(2d,p)
 ****
 36  38  39  40  41 0
 6-311+G(2d,p)
 ****
 1  2  3  4  5  16  17  18  19  20  21  22  23  24  25 0
 3-21G
 ****
 27  28  30  31  32  35  37  42  43  44  45  46  47 0
 3-21G
 ****
 48  49 0
 3-21G
 ****


