%nproc=1
%NoSave
%Mem=1900MB
#P OB98/GEN NMR

erre ene a

0 1
  C      -73.805      26.581      25.634
  O      -74.597      25.448      25.353
  P      -75.989      25.150      26.077
  C      -78.152      23.831      25.499
  O      -76.974      24.463      25.009
  C      -79.285      23.789      24.462
  O      -79.751      25.129      24.206
  C      -78.758      23.253      23.128
  O      -78.659      21.860      22.910
  C      -79.533      24.016      22.062
  O      -80.638      23.270      21.547
  C      -80.026      25.260      22.803
  N      -80.370      29.079      19.487
  C      -81.330      28.155      19.852
  N      -82.450      28.138      19.098
  N      -81.186      27.317      20.845
  C      -79.974      27.390      21.443
  C      -78.951      28.271      21.179
  C      -79.138      29.219      20.107
  O      -78.280      29.997      19.698
  N      -77.840      28.003      21.936
  C      -78.173      26.935      22.630
  N      -79.444      26.502      22.335
  O      -76.531      26.225      26.962
  O      -75.593      23.902      27.022
  H      -80.293      22.433      21.187
  H      -76.119      23.978      27.842
  H      -80.505      29.648      18.661
  H      -77.524      26.419      23.328
  H      -81.113      25.362      22.706
  H      -78.890      24.243      21.204
  H      -82.532      28.667      18.241
  H      -77.724      23.608      23.031
  H      -83.096      27.368      19.227
  H      -80.149      23.242      24.847
  H      -78.468      24.376      26.394
  H      -77.915      22.811      25.811
  P      -78.196      21.140      21.560
  C      -76.952      18.998      20.922
  O      -77.187      19.957      21.938
  O      -77.240      22.210      20.849
  O      -79.308      20.748      20.643
  H      -77.192      22.024      19.893
  H      -76.513      18.104      21.371
  H      -76.251      19.408      20.189
  H      -77.884      18.724      20.419
  H      -72.925      26.561      25.026
  H      -73.525      26.573      26.667
  H      -74.364      27.468      25.422

 3  4  5  6  7  8  9  10  11  12  23  26  30  31 0
 6-311+G(2d,p)
 ****
 33  35  36  37  38 0
 6-311+G(2d,p)
 ****
 1  2  13  14  15  16  17  18  19  20  21  22  24  25 0
 3-21G
 ****
 27  28  29  32  34  39  40  41  42  43  44  45  46  47  48  49 0
 3-21G
 ****


