%nproc=1
%NoSave
%Mem=1900MB
#P OB98/GEN NMR

erre ene a

0 1
  C      -68.716    -593.415    1048.975
  O      -67.940    -594.366    1048.273
  H      -68.861    -592.544    1048.327
  H      -68.207    -593.097    1049.883
  H      -69.701    -593.838    1049.225
  P      -67.751    -595.800    1048.968
  C      -67.164    -598.224    1048.118
  O      -67.467    -596.860    1047.795
  C      -66.929    -599.016    1046.830
  O      -68.170    -599.211    1046.116
  C      -66.028    -598.335    1045.836
  O      -64.671    -598.310    1046.236
  C      -66.299    -599.178    1044.588
  O      -65.557    -600.415    1044.637
  C      -67.817    -599.442    1044.727
  N      -68.617    -598.621    1043.809
  C      -68.301    -598.742    1042.446
  O      -67.414    -599.502    1042.070
  N      -68.975    -597.958    1041.550
  C      -69.901    -597.146    1041.963
  N      -70.541    -596.393    1041.029
  C      -70.286    -597.011    1043.384
  C      -69.608    -597.764    1044.246
  O      -69.240    -596.164    1049.441
  O      -66.722    -595.844    1050.064
  H      -65.855    -600.946    1043.864
  H      -69.886    -596.106    1048.720
  H      -71.076    -596.323    1043.691
  H      -69.822    -597.706    1045.312
  H      -68.052    -600.502    1044.505
  H      -66.004    -598.669    1043.680
  H      -66.393    -597.314    1045.624
  H      -66.555    -600.012    1047.110
  H      -70.239    -596.497    1040.064
  H      -67.959    -598.660    1048.720
  H      -71.266    -595.697    1041.229
  H      -66.249    -598.217    1048.726
  P      -63.514    -597.817    1045.234
  C      -61.101    -596.965    1045.460
  O      -62.281    -597.401    1046.141
  O      -63.946    -596.767    1044.239
  O      -63.019    -599.177    1044.552
  H      -62.662    -599.830    1045.164
  H      -60.347    -596.715    1046.177
  H      -61.329    -596.104    1044.867
  H      -60.744    -597.750    1044.827

 6  7  8  9  10  11  12  13  14  15  16  26  30  31  32  33  35 0
 6-311+G(2d,p)
 ****
 37  38 0
 6-311+G(2d,p)
 ****
 1  2  3  4  5  17  18  19  20  21  22  23  24  25 0
 3-21G
 ****
 27  28  29  34  36  39  40  41  42  43  44  45  46 0
 3-21G
 ****


