%nproc=1
%NoSave
%Mem=1900MB
#P OB98/GEN NMR

erre ene a

0 1
  C      143.867     670.459     253.347
  O      143.000     670.329     252.236
  H      144.452     669.542     253.447
  H      143.293     670.615     254.267
  H      144.555     671.299     253.195
  P      142.028     671.551     251.883
  C      140.590     671.179     253.994
  O      140.620     671.214     252.571
  C      139.215     671.612     254.498
  O      139.020     673.020     254.292
  C      138.053     670.898     253.795
  O      137.850     669.610     254.356
  C      136.914     671.866     254.095
  O      136.482     671.695     255.458
  C      137.613     673.229     253.927
  N      134.690     675.459     250.444
  C      134.366     674.994     251.705
  N      133.072     675.093     252.065
  N      135.225     674.452     252.520
  C      136.478     674.354     251.995
  C      136.912     674.769     250.748
  C      135.957     675.425     249.884
  O      136.204     675.868     248.762
  N      138.223     674.442     250.552
  C      138.605     673.871     251.672
  N      137.568     673.770     252.580
  O      141.918     671.913     250.426
  O      142.589     672.764     252.760
  H      136.075     670.811     255.516
  H      143.230     673.297     252.262
  H      133.973     675.855     249.857
  H      139.604     673.506     251.883
  H      137.215     673.990     254.602
  H      136.046     671.722     253.453
  H      132.336     675.229     251.380
  H      138.196     670.861     252.710
  H      132.803     674.707     252.962
  H      139.178     671.430     255.577
  H      141.355     671.872     254.358
  H      140.817     670.168     254.355
  P      138.182     668.278     253.513
  C      136.115     668.746     252.032
  O      136.773     667.824     252.884
  O      138.902     667.219     254.268
  O      138.978     668.813     252.229
  H      139.954     668.881     252.367
  H      135.197     668.319     251.686
  H      136.743     668.968     251.194
  H      135.909     669.646     252.572

 6  7  8  9  10  11  12  13  14  15  26  29  33  34 0
 6-311+G(2d,p)
 ****
 36  38  39  40  41 0
 6-311+G(2d,p)
 ****
 1  2  3  4  5  16  17  18  19  20  21  22  23  24  25 0
 3-21G
 ****
 27  28  30  31  32  35  37  42  43  44  45  46  47 0
 3-21G
 ****
 48  49 0
 3-21G
 ****


