%nproc=1
%NoSave
%Mem=1900MB
#P OB98/GEN NMR

erre ene a

0 1
  C       48.528    -277.608    -201.531
  O       49.316    -276.452    -201.355
  H       49.189    -278.476    -201.591
  H       47.966    -277.528    -202.466
  H       47.835    -277.751    -200.697
  P       48.624    -275.127    -200.788
  C       50.687    -273.664    -200.269
  O       49.576    -273.879    -201.130
  C       51.453    -272.395    -200.638
  O       52.241    -272.632    -201.824
  C       50.523    -271.219    -200.954
  O       50.131    -270.460    -199.823
  C       51.381    -270.387    -201.903
  O       52.207    -269.457    -201.181
  C       52.246    -271.434    -202.615
  N       51.996    -269.916    -207.490
  C       52.414    -269.204    -206.380
  N       52.770    -267.921    -206.601
  N       52.454    -269.709    -205.175
  C       51.972    -270.969    -205.096
  C       51.515    -271.767    -206.122
  C       51.543    -271.227    -207.464
  O       51.202    -271.821    -208.481
  N       51.066    -272.981    -205.654
  C       51.173    -272.877    -204.345
  N       51.793    -271.710    -203.964
  O       48.798    -275.265    -199.199
  O       47.180    -274.950    -201.147
  H       51.640    -268.981    -200.544
  H       48.047    -274.837    -198.750
  H       52.014    -269.484    -208.395
  H       50.862    -273.632    -203.633
  H       53.289    -271.104    -202.690
  H       50.755    -269.792    -202.575
  H       52.677    -267.456    -207.490
  H       49.641    -271.560    -201.503
  H       52.899    -267.311    -205.790
  H       52.154    -272.147    -199.831
  H       51.334    -274.536    -200.374
  H       50.358    -273.622    -199.226
  P       48.631    -269.932    -199.669
  C       49.477    -267.834    -198.338
  O       48.675    -268.366    -199.370
  O       48.167    -270.562    -198.273
  O       47.704    -270.295    -200.781
  H       47.639    -271.370    -198.417
  H       49.361    -266.771    -198.308
  H       50.503    -268.075    -198.523
  H       49.176    -268.252    -197.400

 6  7  8  9  10  11  12  13  14  15  26  29  33  34 0
 6-311+G(2d,p)
 ****
 36  38  39  40  41 0
 6-311+G(2d,p)
 ****
 1  2  3  4  5  16  17  18  19  20  21  22  23  24  25 0
 3-21G
 ****
 27  28  30  31  32  35  37  42  43  44  45  46  47 0
 3-21G
 ****
 48  49 0
 3-21G
 ****


