%nproc=1
%NoSave
%Mem=1900MB
#P OB98/GEN NMR

erre ene a

0 1
  C      -38.575      81.082      94.957
  O      -38.645      80.313      93.773
  H      -39.522      81.599      95.126
  H      -38.381      80.414      95.801
  H      -37.761      81.808      94.887
  P      -38.962      81.104      92.414
  C      -36.601      80.610      91.464
  O      -37.553      81.603      91.821
  C      -35.243      81.260      91.210
  O      -34.945      82.144      92.320
  C      -34.075      80.268      91.065
  O      -33.432      80.445      89.799
  C      -33.099      80.667      92.161
  O      -31.735      80.616      91.746
  C      -33.526      82.087      92.515
  N      -29.865      84.004      95.495
  C      -30.103      84.141      94.172
  N      -31.155      83.693      93.458
  C      -32.035      83.062      94.255
  C      -31.942      82.864      95.622
  C      -30.782      83.351      96.247
  N      -30.512      83.163      97.585
  N      -33.038      82.164      96.092
  C      -33.757      81.906      95.020
  N      -33.182      82.413      93.884
  O      -39.652      82.455      92.929
  O      -39.831      80.375      91.446
  H      -31.702      80.993      90.846
  H      -40.466      82.622      92.417
  H      -29.343      84.677      93.611
  H      -34.670      81.324      94.999
  H      -33.063      82.833      91.856
  H      -33.227      79.990      93.014
  H      -34.390      79.225      91.178
  H      -35.323      81.885      90.312
  H      -36.927      80.102      90.550
  H      -29.605      83.443      97.924
  H      -31.138      82.584      98.126
  H      -36.535      79.873      92.270
  P      -33.911      79.478      88.605
  C      -34.592      81.398      86.987
  O      -35.011      80.279      87.754
  O      -34.774      78.366      89.370
  O      -32.791      78.879      87.823
  H      -34.766      77.532      88.866
  H      -35.435      81.820      86.482
  H      -33.865      81.085      86.267
  H      -34.160      82.132      87.634

 6  7  8  9  10  11  12  13  14  15  25  28  32  33  34  35 0
 6-311+G(2d,p)
 ****
 36  39  40 0
 6-311+G(2d,p)
 ****
 1  2  3  4  5  16  17  18  19  20  21  22  23  24 0
 3-21G
 ****
 26  27  29  30  31  37  38  41  42  43  44  45  46  47  48 0
 3-21G
 ****


