%nproc=1
%NoSave
%Mem=1900MB
#P OB98/GEN NMR

erre ene a

0 1
  C      144.154     163.637    -107.403
  O      144.652     163.783    -106.070
  P      144.652     162.467    -105.154
  C      146.383     161.461    -103.500
  O      145.790     162.635    -104.038
  C      147.749     161.790    -102.897
  O      148.762     161.935    -103.916
  C      147.768     163.103    -102.124
  O      147.130     162.963    -100.866
  C      149.268     163.368    -102.050
  O      149.868     162.577    -101.009
  C      149.751     162.872    -103.422
  N      153.186     165.799    -105.832
  C      153.321     164.816    -104.915
  N      152.356     164.086    -104.319
  C      151.142     164.447    -104.766
  C      150.849     165.425    -105.701
  C      151.938     166.125    -106.244
  N      151.799     167.137    -107.167
  N      149.486     165.511    -105.904
  C      148.966     164.616    -105.089
  N      149.928     163.938    -104.389
  O      145.236     161.338    -106.126
  O      143.301     162.101    -104.631
  H      149.784     163.083    -100.175
  H      144.526     160.722    -106.387
  H      154.341     164.586    -104.617
  H      147.907     164.423    -104.970
  H      150.704     162.334    -103.355
  H      149.508     164.416    -101.843
  H      147.276     163.892    -102.705
  H      148.038     160.964    -102.233
  H      146.497     160.703    -104.280
  H      152.626     167.641    -107.446
  H      150.870     167.447    -107.416
  H      145.710     161.039    -102.746
  P      145.838     163.868    -100.579
  C      143.522     163.107     -99.770
  O      144.922     162.935     -99.645
  O      145.081     163.803    -101.985
  O      146.127     165.232    -100.054
  H      145.050     162.897    -102.338
  H      143.022     162.395     -99.109
  H      143.208     162.918    -100.799
  H      143.242     164.122     -99.472
  H      144.206     164.579    -107.908
  H      143.137     163.306    -107.370
  H      144.746     162.917    -107.928

 3  4  5  6  7  8  9  10  11  12  22  25  29  30  31  32 0
 6-311+G(2d,p)
 ****
 33  36  37 0
 6-311+G(2d,p)
 ****
 1  2  13  14  15  16  17  18  19  20  21  23  24  26 0
 3-21G
 ****
 27  28  34  35  38  39  40  41  42  43  44  45  46  47  48 0
 3-21G
 ****


