%nproc=1
%NoSave
%Mem=1900MB
#P OB98/GEN NMR

erre ene a

0 1
  C      147.377     -98.417     313.272
  O      148.462     -97.791     313.934
  P      148.350     -96.218     314.229
  C      147.104     -94.324     312.894
  O      147.802     -95.559     312.875
  C      147.611     -93.414     311.773
  O      147.359     -94.026     310.490
  C      146.937     -92.049     311.711
  O      147.430     -91.170     312.709
  C      147.253     -91.628     310.281
  O      148.592     -91.111     310.197
  C      147.153     -92.971     309.527
  N      145.888     -93.140     308.817
  C      145.631     -92.233     307.793
  O      146.406     -91.331     307.482
  N      144.434     -92.389     307.147
  C      143.464     -93.298     307.458
  O      142.389     -93.364     306.874
  C      143.778     -94.206     308.571
  C      144.957     -94.090     309.187
  O      149.898     -95.818     314.281
  O      147.573     -95.906     315.463
  H      150.444     -96.418     313.743
  H      148.571     -90.225     310.608
  H      144.233     -91.757     306.386
  H      143.029     -94.937     308.851
  H      145.200     -94.745     310.014
  H      147.971     -93.059     308.802
  H      146.576     -90.851     309.911
  H      145.852     -92.164     311.827
  H      148.696     -93.300     311.889
  H      147.262     -93.840     313.861
  H      146.032     -94.520     312.773
  P      146.895     -89.652     312.658
  C      147.160     -87.699     310.944
  O      147.529     -89.002     311.340
  O      147.720     -88.993     313.861
  O      145.413     -89.535     312.786
  H      148.648     -89.281     313.885
  H      147.928     -87.306     310.269
  H      147.070     -87.030     311.802
  H      146.208     -87.735     310.408
  H      147.590     -99.458     313.144
  H      147.233     -97.962     312.314
  H      146.489     -98.304     313.858

 3  4  5  6  7  8  9  10  11  12  13  24  28  29  30  31  32 0
 6-311+G(2d,p)
 ****
 33  34 0
 6-311+G(2d,p)
 ****
 1  2  14  15  16  17  18  19  20  21  22  23  25  26  27 0
 3-21G
 ****
 35  36  37  38  39  40  41  42  43  44  45 0
 3-21G
 ****


