%nproc=1
%NoSave
%Mem=1900MB
#P OB98/GEN NMR

erre ene a

0 1
  C      767.489    -293.608     112.460
  O      768.795    -293.729     111.870
  P      769.757    -292.460     111.669
  C      770.062    -292.988     109.156
  O      770.713    -292.725     110.403
  C      771.017    -293.607     108.139
  O      771.165    -295.028     108.372
  C      770.581    -293.461     106.686
  O      770.866    -292.152     106.207
  C      771.368    -294.585     106.020
  O      772.717    -294.167     105.768
  C      771.334    -295.675     107.092
  N      770.108    -299.976     104.600
  C      771.251    -299.251     104.640
  N      771.497    -298.110     105.330
  C      770.417    -297.751     106.048
  C      769.188    -298.384     106.109
  C      769.041    -299.558     105.334
  N      767.881    -300.294     105.286
  N      768.316    -297.705     106.927
  C      769.016    -296.670     107.378
  N      770.298    -296.662     106.877
  O      770.484    -292.036     112.906
  O      768.789    -291.291     111.156
  H      773.197    -294.926     105.371
  H      769.147    -290.420     111.426
  H      772.069    -299.631     104.045
  H      768.655    -295.936     108.065
  H      772.292    -296.215     107.143
  H      770.935    -294.888     105.055
  H      769.507    -293.664     106.593
  H      772.006    -293.161     108.288
  H      769.667    -292.047     108.765
  H      767.844    -301.092     104.681
  H      767.077    -299.955     105.785
  H      769.219    -293.669     109.357
  P      770.071    -291.560     104.952
  C      772.068    -290.460     103.761
  O      770.857    -290.250     104.473
  O      768.606    -291.395     105.134
  O      770.389    -292.609     103.775
  H      769.652    -292.627     103.144
  H      772.875    -290.682     104.476
  H      772.326    -289.546     103.212
  H      771.966    -291.284     103.062
  H      767.024    -294.571     112.497
  H      766.891    -292.945     111.870
  H      767.581    -293.218     113.452

 3  4  5  6  7  8  9  10  11  12  22  25  29  30  31  32 0
 6-311+G(2d,p)
 ****
 33  36  37 0
 6-311+G(2d,p)
 ****
 1  2  13  14  15  16  17  18  19  20  21  23  24  26 0
 3-21G
 ****
 27  28  34  35  38  39  40  41  42  43  44  45  46  47  48 0
 3-21G
 ****


