%nproc=1
%NoSave
%Mem=1900MB
#P OB98/GEN NMR

erre ene a

0 1
  C       51.264      41.384     170.458
  O       50.627      42.629     170.778
  P       49.876      42.868     172.175
  C       50.335      44.404     174.194
  O       50.335      44.286     172.772
  C       51.319      45.477     174.672
  O       52.680      45.073     174.419
  C       51.150      46.836     173.998
  O       50.059      47.541     174.563
  C       52.519      47.463     174.246
  O       52.589      48.008     175.576
  C       53.452      46.252     174.115
  N       56.228      43.229     171.064
  C       55.754      43.057     172.317
  N       55.025      43.911     173.067
  C       54.771      45.041     172.382
  C       55.192      45.362     171.099
  C       55.959      44.392     170.426
  N       56.453      44.577     169.157
  N       54.761      46.621     170.742
  C       54.073      47.048     171.786
  N       54.051      46.131     172.798
  O       49.995      41.732     173.140
  O       48.344      43.114     171.776
  H       52.655      47.259     176.194
  H       47.765      42.834     172.511
  H       55.991      42.104     172.783
  H       53.576      48.006     171.851
  H       54.267      46.289     174.845
  H       52.746      48.273     173.548
  H       51.000      46.703     172.921
  H       51.204      45.573     175.760
  H       50.615      43.434     174.622
  H       57.024      43.848     168.754
  H       56.296      45.460     168.691
  H       49.320      44.654     174.523
  P       48.819      47.969     173.643
  C       46.291      47.963     174.085
  O       47.573      48.228     174.621
  O       48.540      47.076     172.481
  O       49.198      49.448     173.161
  H       48.799      49.614     172.288
  H       45.976      48.805     173.461
  H       45.583      47.848     174.910
  H       46.295      47.045     173.488
  H       51.699      41.446     169.482
  H       50.539      40.597     170.476
  H       52.029      41.180     171.177

 3  4  5  6  7  8  9  10  11  12  22  25  29  30  31  32 0
 6-311+G(2d,p)
 ****
 33  36  37 0
 6-311+G(2d,p)
 ****
 1  2  13  14  15  16  17  18  19  20  21  23  24  26 0
 3-21G
 ****
 27  28  34  35  38  39  40  41  42  43  44  45  46  47  48 0
 3-21G
 ****


