%nproc=1
%NoSave
%Mem=1900MB
#P OB98/GEN NMR

erre ene a

0 1
  C      256.898    -639.955    -223.877
  O      255.746    -639.894    -224.696
  H      257.547    -640.750    -224.253
  H      256.614    -640.182    -222.852
  H      257.443    -639.008    -223.916
  P      254.694    -638.725    -224.382
  C      253.471    -638.352    -226.642
  O      253.436    -638.963    -225.349
  C      252.106    -637.788    -227.009
  O      251.156    -638.889    -227.151
  C      251.528    -636.809    -225.974
  O      250.793    -635.797    -226.681
  C      250.531    -637.672    -225.207
  O      249.534    -636.898    -224.542
  C      250.007    -638.541    -226.349
  N      245.477    -640.690    -225.856
  C      245.844    -639.500    -226.450
  N      244.858    -638.759    -227.003
  N      247.078    -639.069    -226.506
  C      247.979    -639.921    -225.940
  C      247.742    -641.120    -225.312
  C      246.361    -641.577    -225.240
  O      245.972    -642.609    -224.712
  N      248.909    -641.670    -224.844
  C      249.835    -640.804    -225.188
  N      249.326    -639.721    -225.857
  O      255.412    -637.435    -224.996
  O      254.351    -638.536    -222.936
  H      249.999    -636.229    -223.985
  H      255.928    -636.971    -224.309
  H      244.508    -640.967    -225.836
  H      250.902    -640.910    -224.989
  H      249.292    -638.008    -226.989
  H      251.059    -638.273    -224.461
  H      243.891    -639.050    -227.040
  H      252.276    -636.338    -225.328
  H      245.114    -637.905    -227.485
  H      252.178    -637.311    -227.997
  H      253.759    -639.114    -227.382
  H      254.226    -637.559    -226.638
  P      251.314    -634.282    -226.586
  C      249.672    -634.010    -228.585
  O      250.380    -633.376    -227.530
  O      252.698    -634.333    -227.403
  O      251.511    -633.771    -225.200
  H      253.301    -633.644    -227.063
  H      249.099    -633.281    -229.119
  H      249.016    -634.751    -228.179
  H      250.367    -634.476    -229.252

 6  7  8  9  10  11  12  13  14  15  26  29  33  34 0
 6-311+G(2d,p)
 ****
 36  38  39  40  41 0
 6-311+G(2d,p)
 ****
 1  2  3  4  5  16  17  18  19  20  21  22  23  24  25 0
 3-21G
 ****
 27  28  30  31  32  35  37  42  43  44  45  46  47 0
 3-21G
 ****
 48  49 0
 3-21G
 ****


