%nproc=1
%NoSave
%Mem=1900MB
#P OB98/GEN NMR

erre ene a

0 1
  C      533.835     153.772      64.828
  O      533.972     153.021      63.624
  P      532.972     153.340      62.407
  C      532.333     150.768      62.225
  O      532.660     151.992      61.598
  C      532.551     149.617      61.236
  O      531.665     149.763      60.102
  C      533.971     149.545      60.685
  O      534.833     148.809      61.530
  C      533.750     148.906      59.332
  O      533.561     147.491      59.471
  C      532.442     149.601      58.880
  N      532.534     150.901      58.198
  C      532.835     150.958      56.837
  O      533.045     149.964      56.141
  N      532.893     152.207      56.279
  C      532.509     153.375      56.880
  O      532.520     154.463      56.307
  C      532.051     153.250      58.264
  C      532.102     152.046      58.859
  O      533.875     154.191      61.394
  O      531.731     154.069      62.800
  H      533.558     147.110      58.570
  H      533.518     155.096      61.314
  H      533.177     152.265      55.312
  H      531.711     154.144      58.760
  H      531.766     151.950      59.881
  H      531.875     148.936      58.216
  H      534.629     149.033      58.687
  H      534.368     150.557      60.527
  H      532.303     148.679      61.742
  H      531.300     150.777      62.577
  H      532.969     150.635      63.112
  P      535.603     149.546      62.730
  C      537.606     149.918      61.160
  O      537.173     149.382      62.396
  O      535.200     149.152      64.109
  O      535.353     151.097      62.437
  H      534.588     151.434      62.965
  H      538.695     149.887      61.120
  H      537.270     150.956      61.062
  H      537.216     149.316      60.333
  H      534.566     153.445      65.537
  H      532.855     153.623      65.232
  H      533.980     154.811      64.619

 3  4  5  6  7  8  9  10  11  12  13  23  28  29  30  31  32 0
 6-311+G(2d,p)
 ****
 33  34 0
 6-311+G(2d,p)
 ****
 1  2  14  15  16  17  18  19  20  21  22  24  25  26  27 0
 3-21G
 ****
 35  36  37  38  39  40  41  42  43  44  45 0
 3-21G
 ****


