%nproc=1
%NoSave
%Mem=1900MB
#P OB98/GEN NMR

erre ene a

0 1
  C      336.197     331.439    -274.048
  O      337.129     332.135    -273.216
  P      338.331     332.938    -273.907
  C      337.521     334.996    -275.236
  O      337.928     334.491    -273.968
  C      338.074     336.402    -275.464
  O      337.905     336.827    -276.832
  C      337.376     337.463    -274.624
  O      337.784     337.388    -273.267
  C      337.779     338.734    -275.358
  O      339.087     339.165    -274.960
  C      337.801     338.267    -276.829
  N      336.649     338.716    -277.595
  C      336.679     340.052    -278.022
  O      337.617     340.782    -277.711
  N      335.628     340.522    -278.774
  C      334.640     339.736    -279.062
  N      333.628     340.257    -279.816
  C      334.565     338.331    -278.626
  C      335.591     337.891    -277.898
  O      338.842     332.366    -275.188
  O      339.470     332.922    -272.771
  H      339.701     338.454    -275.229
  H      340.348     332.936    -273.205
  H      333.723     337.711    -278.903
  H      335.615     336.873    -277.529
  H      338.702     338.644    -277.332
  H      337.089     339.558    -275.150
  H      336.286     337.329    -274.690
  H      339.147     336.391    -275.228
  H      333.696     341.229    -280.094
  H      336.430     335.009    -275.290
  H      332.840     339.716    -280.137
  H      337.869     334.305    -276.015
  P      336.654     337.130    -272.163
  C      335.580     334.815    -272.628
  O      336.563     335.549    -271.922
  O      335.297     337.462    -272.952
  O      336.779     337.965    -270.932
  H      334.648     337.850    -272.339
  H      335.853     333.753    -272.596
  H      335.522     335.131    -273.672
  H      334.610     334.942    -272.148
  H      335.462     330.958    -273.436
  H      336.716     330.704    -274.627
  H      335.716     332.134    -274.704

 3  4  5  6  7  8  9  10  11  12  13  23  27  28  29  30  32 0
 6-311+G(2d,p)
 ****
 34  35 0
 6-311+G(2d,p)
 ****
 1  2  14  15  16  17  18  19  20  21  22  24  25  26 0
 3-21G
 ****
 31  33  36  37  38  39  40  41  42  43  44  45  46 0
 3-21G
 ****


