%nproc=1
%NoSave
%Mem=1900MB
#P OB98/GEN NMR

erre ene a

0 1
  C       94.551      82.407     135.777
  O       95.513      82.960     136.652
  H       94.742      81.341     135.625
  H       93.561      82.529     136.223
  H       94.573      82.930     134.817
  P       97.049      82.784     136.222
  C       97.685      85.156     135.396
  O       97.313      83.834     135.037
  C       98.253      85.889     134.186
  O       99.568      85.388     133.872
  C       97.444      85.727     132.905
  O       96.302      86.572     132.888
  C       98.472      86.154     131.868
  O       98.529      87.591     131.805
  C       99.782      85.602     132.452
  N      102.690      83.434     128.818
  C      102.487      84.727     129.158
  N      101.693      85.230     130.124
  C      101.075      84.244     130.795
  C      101.184      82.883     130.563
  C      102.032      82.483     129.516
  N      102.219      81.162     129.169
  N      100.414      82.173     131.458
  C       99.847      83.087     132.219
  N      100.212      84.356     131.852
  O       97.068      81.368     135.471
  O       98.035      82.820     137.342
  H       97.703      87.885     131.379
  H       97.912      80.919     135.663
  H      103.040      85.459     128.574
  H       99.177      82.878     133.044
  H      100.600      86.325     132.359
  H       98.245      85.792     130.863
  H       97.173      84.680     132.736
  H       98.353      86.950     134.451
  H       98.446      85.119     136.182
  H      102.978      80.929     128.551
  H      101.727      80.455     129.704
  H       96.804      85.680     135.780
  P       95.126      86.204     131.856
  C       94.405      84.667     133.817
  O       94.479      84.844     132.407
  O       95.925      85.731     130.552
  O       94.178      87.313     131.555
  H       95.371      85.861     129.758
  H       93.954      83.721     134.035
  H       93.815      85.451     134.244
  H       95.391      84.696     134.232

 6  7  8  9  10  11  12  13  14  15  25  28  32  33  34  35 0
 6-311+G(2d,p)
 ****
 36  39  40 0
 6-311+G(2d,p)
 ****
 1  2  3  4  5  16  17  18  19  20  21  22  23  24 0
 3-21G
 ****
 26  27  29  30  31  37  38  41  42  43  44  45  46  47  48 0
 3-21G
 ****


