%nproc=1
%NoSave
%Mem=1900MB
#P OB98/GEN NMR

erre ene a

0 1
  C     -894.949    -227.551    -212.425
  O     -894.249    -227.583    -213.672
  P     -893.375    -226.304    -214.093
  C     -895.126    -224.762    -215.227
  O     -894.325    -225.009    -214.064
  C     -895.646    -223.317    -215.224
  O     -894.517    -222.406    -215.229
  C     -896.496    -222.938    -216.447
  O     -897.902    -223.162    -216.386
  C     -896.303    -221.422    -216.476
  O     -897.213    -220.790    -215.565
  C     -894.871    -221.228    -215.989
  N     -892.173    -217.735    -218.592
  C     -893.033    -217.621    -217.552
  N     -893.707    -218.603    -216.923
  C     -893.419    -219.802    -217.440
  C     -892.552    -220.070    -218.497
  C     -891.910    -218.977    -219.081
  N     -891.041    -219.082    -220.151
  N     -892.505    -221.436    -218.758
  C     -893.350    -221.966    -217.884
  N     -893.915    -221.031    -217.064
  O     -892.534    -226.461    -215.312
  O     -892.452    -226.074    -212.791
  H     -897.051    -221.191    -214.690
  H     -891.568    -225.792    -213.079
  H     -893.197    -216.618    -217.186
  H     -893.584    -223.022    -217.831
  H     -894.770    -220.363    -215.314
  H     -896.512    -220.998    -217.467
  H     -896.088    -223.380    -217.352
  H     -896.225    -223.138    -214.297
  H     -895.962    -225.456    -215.233
  H     -890.657    -218.237    -220.537
  H     -890.881    -219.987    -220.560
  H     -894.508    -224.988    -216.091
  P     -898.575    -224.399    -217.164
  C     -900.000    -223.067    -218.931
  O     -898.864    -223.875    -218.653
  O     -899.771    -224.992    -216.478
  O     -897.356    -225.400    -217.363
  H     -896.663    -225.087    -217.983
  H     -899.888    -222.637    -219.925
  H     -900.083    -222.256    -218.204
  H     -900.895    -223.690    -218.902
  H     -895.480    -228.470    -212.291
  H     -895.641    -226.735    -212.426
  H     -894.249    -227.424    -211.626

 3  4  5  6  7  8  9  10  11  12  22  25  29  30  31  32 0
 6-311+G(2d,p)
 ****
 33  36  37 0
 6-311+G(2d,p)
 ****
 1  2  13  14  15  16  17  18  19  20  21  23  24  26 0
 3-21G
 ****
 27  28  34  35  38  39  40  41  42  43  44  45  46  47  48 0
 3-21G
 ****


