%nproc=1
%NoSave
%Mem=1900MB
#P OB98/GEN NMR

erre ene a

0 1
  C      201.494      91.623     -55.762
  O      202.647      91.350     -56.556
  P      203.596      92.574     -56.970
  C      201.961      93.784     -58.561
  O      202.672      93.839     -57.327
  C      201.560      95.198     -59.015
  O      200.854      95.858     -57.930
  C      202.732      96.121     -59.368
  O      203.216      96.116     -60.708
  C      202.110      97.495     -59.135
  O      201.358      97.895     -60.297
  C      201.158      97.267     -57.963
  N      201.689     101.191     -54.722
  C      201.069     101.085     -55.917
  N      200.977     100.003     -56.718
  C      201.595      98.948     -56.167
  C      202.264      98.905     -54.956
  C      202.304     100.098     -54.214
  N      202.945     100.210     -53.003
  N      202.781      97.646     -54.727
  C      202.442      96.947     -55.794
  N      201.713      97.683     -56.686
  O      204.669      92.262     -57.958
  O      204.230      93.008     -55.560
  H      201.105      98.826     -60.156
  H      205.161      93.271     -55.701
  H      200.589     101.988     -56.282
  H      202.703      95.911     -55.959
  H      200.209      97.802     -58.087
  H      202.863      98.270     -58.969
  H      203.569      95.970     -58.675
  H      200.876      95.120     -59.870
  H      201.066      93.170     -58.438
  H      202.964     101.112     -52.555
  H      203.458      99.419     -52.636
  H      202.597      93.275     -59.284
  P      204.700      95.626     -61.059
  C      206.386      97.492     -60.335
  O      205.652      96.338     -59.985
  O      205.111      95.819     -62.478
  O      204.686      94.103     -60.572
  H      204.625      93.988     -59.609
  H      206.793      97.938     -59.424
  H      205.745      98.223     -60.832
  H      207.216      97.217     -60.994
  H      200.968      90.711     -55.571
  H      200.853      92.301     -56.285
  H      201.796      92.061     -54.834

 3  4  5  6  7  8  9  10  11  12  22  25  29  30  31  32 0
 6-311+G(2d,p)
 ****
 33  36  37 0
 6-311+G(2d,p)
 ****
 1  2  13  14  15  16  17  18  19  20  21  23  24  26 0
 3-21G
 ****
 27  28  34  35  38  39  40  41  42  43  44  45  46  47  48 0
 3-21G
 ****


