%nproc=1
%NoSave
%Mem=1900MB
#P OB98/GEN NMR

erre ene a

0 1
  C      815.946       6.097    -222.694
  O      816.665       4.943    -223.088
  H      815.827       6.747    -223.566
  H      816.495       6.647    -221.923
  H      814.956       5.824    -222.324
  P      817.043       3.862    -221.969
  C      819.011       3.548    -220.315
  O      818.515       4.237    -221.457
  C      820.498       3.227    -220.479
  O      820.681       2.249    -221.525
  C      821.354       4.420    -220.868
  O      821.563       5.271    -219.760
  C      822.598       3.717    -221.396
  O      823.424       3.260    -220.313
  C      821.965       2.516    -222.144
  N      821.810       2.743    -223.577
  C      822.966       2.577    -224.351
  O      824.031       2.278    -223.824
  N      822.869       2.775    -225.711
  C      821.733       3.067    -226.249
  N      821.707       3.250    -227.601
  C      820.479       3.209    -225.476
  C      820.597       3.050    -224.160
  O      816.871       2.423    -222.350
  O      816.116       4.257    -220.721
  H      822.832       2.771    -219.707
  H      815.291       3.739    -220.733
  H      819.555       3.446    -225.967
  H      819.729       3.134    -223.509
  H      822.581       1.613    -222.004
  H      823.208       4.361    -222.021
  H      820.889       4.968    -221.704
  H      820.851       2.777    -219.542
  H      822.588       3.118    -228.093
  H      818.431       2.625    -220.221
  H      820.859       3.312    -228.144
  H      818.853       4.145    -219.410
  P      822.002       6.803    -219.942
  C      824.311       7.952    -219.999
  O      823.574       6.760    -220.282
  O      821.623       7.711    -218.823
  O      821.362       7.215    -221.353
  H      820.394       7.384    -221.252
  H      825.338       7.808    -220.263
  H      824.240       8.176    -218.955
  H      823.907       8.764    -220.567

 6  7  8  9  10  11  12  13  14  15  16  26  30  31  32  33  35 0
 6-311+G(2d,p)
 ****
 37  38 0
 6-311+G(2d,p)
 ****
 1  2  3  4  5  17  18  19  20  21  22  23  24  25 0
 3-21G
 ****
 27  28  29  34  36  39  40  41  42  43  44  45  46 0
 3-21G
 ****


