%nproc=1
%NoSave
%Mem=1900MB
#P OB98/GEN NMR

erre ene a

0 1
  C      677.660    -768.389     113.601
  O      676.861    -769.087     112.668
  H      677.806    -769.020     114.484
  H      677.152    -767.472     113.910
  H      678.638    -768.151     113.175
  P      676.649    -768.418     111.227
  C      675.420    -769.086     109.036
  O      675.718    -769.422     110.382
  C      674.745    -770.263     108.327
  O      675.687    -771.379     108.269
  C      673.474    -770.762     109.029
  O      672.514    -771.124     108.032
  C      673.940    -772.006     109.774
  O      672.872    -772.922     110.019
  C      675.039    -772.525     108.846
  N      675.992    -773.371     109.569
  C      675.589    -774.699     109.812
  O      674.491    -775.096     109.431
  N      676.430    -775.515     110.527
  C      677.523    -775.037     111.035
  N      678.294    -775.890     111.757
  C      677.950    -773.622     110.859
  C      677.144    -772.863     110.115
  O      678.079    -768.577     110.525
  O      676.175    -767.000     111.238
  H      673.260    -773.796     110.239
  H      678.261    -767.840     109.913
  H      678.855    -773.265     111.327
  H      677.378    -771.814     109.943
  H      674.598    -773.112     108.016
  H      674.364    -771.711     110.741
  H      673.036    -770.017     109.701
  H      674.534    -769.967     107.287
  H      677.969    -776.842     111.874
  H      676.356    -768.846     108.515
  H      679.146    -775.618     112.244
  H      674.764    -768.203     109.016
  P      671.387    -770.048     107.694
  C      670.008    -769.464     105.560
  O      670.662    -770.475     106.322
  O      672.218    -768.741     107.290
  O      670.443    -769.781     108.842
  H      672.151    -768.072     108.006
  H      669.578    -769.901     104.683
  H      670.719    -768.717     105.274
  H      669.237    -769.015     106.150

 6  7  8  9  10  11  12  13  14  15  16  26  30  31  32  33  35 0
 6-311+G(2d,p)
 ****
 37  38 0
 6-311+G(2d,p)
 ****
 1  2  3  4  5  17  18  19  20  21  22  23  24  25 0
 3-21G
 ****
 27  28  29  34  36  39  40  41  42  43  44  45  46 0
 3-21G
 ****


