%nproc=1
%NoSave
%Mem=1900MB
#P OB98/GEN NMR

erre ene a

0 1
  C     -903.803    1133.008     701.139
  O     -904.434    1133.823     700.179
  H     -904.568    1132.543     701.763
  H     -903.143    1133.596     701.768
  H     -903.233    1132.208     700.641
  P     -903.463    1134.680     699.221
  C     -905.414    1136.367     699.612
  O     -904.387    1135.910     698.751
  C     -905.939    1137.726     699.130
  O     -904.865    1138.699     699.093
  C     -906.519    1137.700     697.725
  O     -907.833    1137.173     697.663
  C     -906.515    1139.209     697.422
  O     -907.588    1139.842     698.161
  C     -905.141    1139.605     697.999
  N     -904.056    1139.529     696.994
  C     -904.212    1140.357     695.853
  O     -905.192    1141.088     695.738
  N     -903.254    1140.305     694.879
  C     -902.227    1139.516     695.024
  N     -901.310    1139.492     694.018
  C     -902.012    1138.634     696.200
  C     -902.967    1138.706     697.132
  O     -903.358    1133.786     697.903
  O     -902.148    1135.078     699.815
  H     -908.416    1139.576     697.724
  H     -902.892    1134.289     697.186
  H     -901.164    1137.999     696.261
  H     -902.893    1138.086     698.029
  H     -905.171    1140.624     698.405
  H     -906.654    1139.448     696.365
  H     -905.856    1137.219     697.016
  H     -906.675    1138.074     699.871
  H     -901.495    1140.072     693.199
  H     -905.008    1136.453     700.624
  H     -900.547    1138.825     693.951
  H     -906.236    1135.647     699.618
  P     -908.137    1136.120     696.490
  C     -910.347    1137.428     696.087
  O     -909.716    1136.178     696.212
  O     -907.925    1134.701     697.208
  O     -907.273    1136.257     695.259
  H     -907.560    1134.039     696.582
  H     -911.392    1137.284     695.905
  H     -909.914    1137.966     695.270
  H     -910.216    1137.986     696.991

 6  7  8  9  10  11  12  13  14  15  16  26  30  31  32  33  35 0
 6-311+G(2d,p)
 ****
 37  38 0
 6-311+G(2d,p)
 ****
 1  2  3  4  5  17  18  19  20  21  22  23  24  25 0
 3-21G
 ****
 27  28  29  34  36  39  40  41  42  43  44  45  46 0
 3-21G
 ****


