%nproc=1
%NoSave
%Mem=1900MB
#P OB98/GEN NMR

erre ene a

0 1
  C     -204.019      61.806    -412.071
  O     -203.272      62.515    -411.104
  H     -204.983      61.508    -411.651
  H     -204.195      62.464    -412.927
  H     -203.470      60.923    -412.410
  P     -202.754      61.678    -409.836
  C     -200.884      63.455    -409.516
  O     -201.947      62.724    -408.921
  C     -201.430      64.659    -410.286
  O     -202.279      65.436    -409.400
  C     -200.338      65.591    -410.820
  O     -200.725      66.067    -412.110
  C     -200.337      66.739    -409.824
  O     -199.835      67.944    -410.392
  C     -201.808      66.797    -409.428
  N     -204.313      70.467    -406.912
  C     -204.411      70.013    -408.179
  N     -203.709      69.024    -408.770
  C     -202.863      68.455    -407.893
  C     -202.649      68.809    -406.572
  C     -203.418      69.878    -406.081
  N     -203.299      70.372    -404.802
  N     -201.671      68.011    -406.010
  C     -201.303      67.193    -406.973
  N     -201.993      67.425    -408.131
  O     -201.598      60.768    -410.477
  O     -203.783      60.859    -409.133
  H     -198.859      67.870    -410.452
  H     -202.000      60.005    -410.931
  H     -205.148      70.513    -408.803
  H     -200.543      66.427    -406.890
  H     -202.418      67.361    -410.150
  H     -199.710      66.480    -408.964
  H     -199.363      65.106    -410.887
  H     -202.073      64.294    -411.098
  H     -200.341      62.799    -410.204
  H     -203.849      71.178    -404.552
  H     -202.595      69.988    -404.189
  H     -200.200      63.799    -408.733
  P     -199.995      65.397    -413.374
  C     -201.712      66.241    -415.123
  O     -200.361      66.248    -414.688
  O     -200.789      64.022    -413.576
  O     -198.534      65.158    -413.162
  H     -200.159      63.283    -413.653
  H     -201.807      66.845    -416.001
  H     -202.338      66.635    -414.350
  H     -202.010      65.238    -415.346

 6  7  8  9  10  11  12  13  14  15  25  28  32  33  34  35 0
 6-311+G(2d,p)
 ****
 36  39  40 0
 6-311+G(2d,p)
 ****
 1  2  3  4  5  16  17  18  19  20  21  22  23  24 0
 3-21G
 ****
 26  27  29  30  31  37  38  41  42  43  44  45  46  47 0
 3-21G
 ****
 48 0
 3-21G
 ****


