%nproc=1
%NoSave
%Mem=1900MB
#P OB98/GEN NMR

erre ene a

0 1
  C      -75.803     -88.112      -3.680
  O      -76.025     -87.636      -4.994
  H      -76.273     -87.424      -2.974
  H      -74.731     -88.155      -3.473
  H      -76.249     -89.102      -3.560
  P      -75.431     -88.527      -6.188
  C      -74.101     -86.336      -6.550
  O      -74.715     -87.466      -7.154
  C      -74.232     -85.111      -7.450
  O      -73.753     -83.933      -6.776
  C      -73.438     -85.197      -8.747
  O      -74.134     -85.964      -9.716
  C      -73.368     -83.729      -9.135
  O      -74.609     -83.327      -9.748
  C      -73.207     -83.029      -7.773
  N      -69.611     -79.367      -7.761
  C      -70.822     -79.433      -8.353
  N      -71.705     -80.453      -8.349
  C      -71.232     -81.491      -7.640
  C      -70.016     -81.568      -6.980
  C      -69.187     -80.436      -7.049
  N      -67.956     -80.369      -6.433
  N      -69.873     -82.791      -6.359
  C      -71.005     -83.420      -6.596
  N      -71.847     -82.690      -7.397
  O      -76.388     -89.469      -6.831
  O      -74.183     -89.219      -5.459
  H      -74.632     -82.352      -9.752
  H      -73.748     -88.590      -4.857
  H      -71.125     -78.547      -8.904
  H      -71.272     -84.393      -6.200
  H      -73.784     -82.099      -7.724
  H      -72.576     -83.527      -9.859
  H      -72.424     -85.570      -8.572
  H      -75.299     -84.957      -7.654
  H      -73.044     -86.539      -6.347
  H      -67.357     -79.594      -6.675
  H      -67.590     -81.209      -6.011
  H      -74.607     -86.159      -5.595
  P      -73.340     -86.940     -10.710
  C      -73.349     -85.355     -12.733
  O      -73.833     -86.580     -12.194
  O      -73.415     -88.387     -10.366
  O      -71.837     -86.400     -10.687
  H      -71.207     -87.146     -10.718
  H      -73.740     -85.220     -13.720
  H      -72.280     -85.381     -12.774
  H      -73.663     -84.543     -12.111

 6  7  8  9  10  11  12  13  14  15  25  28  32  33  34  35 0
 6-311+G(2d,p)
 ****
 36  39  40 0
 6-311+G(2d,p)
 ****
 1  2  3  4  5  16  17  18  19  20  21  22  23  24 0
 3-21G
 ****
 26  27  29  30  31  37  38  41  42  43  44  45  46  47 0
 3-21G
 ****
 48 0
 3-21G
 ****


