%nproc=1
%NoSave
%Mem=1900MB
#P OB98/GEN NMR

erre ene a

0 1
  C     -300.025    -883.175     803.893
  O     -300.798    -882.237     804.616
  H     -300.695    -883.762     803.256
  H     -299.512    -883.854     804.573
  H     -299.299    -882.663     803.255
  P     -300.060    -881.293     805.677
  C     -300.658    -879.211     804.273
  O     -299.620    -879.964     804.891
  C     -300.124    -877.850     803.821
  O     -299.874    -877.057     805.010
  C     -298.809    -877.969     803.033
  O     -298.849    -877.303     801.774
  C     -297.754    -877.508     804.039
  O     -296.588    -876.968     803.457
  C     -298.532    -876.530     804.933
  N     -297.961    -876.374     806.274
  C     -296.852    -875.552     806.394
  O     -296.330    -874.920     805.476
  N     -296.333    -875.443     807.667
  C     -296.807    -876.070     808.778
  O     -296.299    -875.932     809.888
  C     -297.971    -876.945     808.577
  C     -298.482    -877.060     807.351
  O     -298.975    -881.941     806.473
  O     -301.250    -880.773     806.623
  H     -295.964    -876.753     804.188
  H     -301.239    -881.266     807.464
  H     -295.532    -874.838     807.771
  H     -298.360    -877.467     809.433
  H     -299.342    -877.705     807.166
  H     -298.581    -875.547     804.476
  H     -297.451    -878.377     804.633
  H     -298.609    -879.008     802.760
  H     -300.901    -877.339     803.238
  H     -301.458    -879.077     805.011
  H     -301.047    -879.765     803.415
  P     -298.885    -878.037     800.362
  C     -301.468    -877.917     799.900
  O     -300.326    -878.720     800.182
  O     -297.700    -878.882     800.038
  O     -298.921    -876.806     799.302
  H     -298.427    -877.119     798.509
  H     -302.332    -878.543     799.815
  H     -301.316    -877.391     798.981
  H     -301.614    -877.214     800.693

 6  7  8  9  10  11  12  13  14  15  16  26  31  32  33  34  35 0
 6-311+G(2d,p)
 ****
 36  37 0
 6-311+G(2d,p)
 ****
 1  2  3  4  5  17  18  19  20  21  22  23  24  25 0
 3-21G
 ****
 27  28  29  30  38  39  40  41  42  43  44  45 0
 3-21G
 ****


