%nproc=1
%NoSave
%Mem=1900MB
#P OB98/GEN NMR

erre ene a

0 1
  C      287.008     435.295    -383.875
  O      288.391     435.067    -383.708
  H      286.740     435.105    -384.912
  H      286.772     436.343    -383.636
  H      286.426     434.629    -383.228
  P      288.958     435.125    -382.207
  C      288.581     432.590    -381.592
  O      288.208     433.948    -381.416
  C      288.891     431.928    -380.253
  O      287.696     431.964    -379.427
  C      289.333     430.463    -380.373
  O      290.310     430.206    -379.362
  C      288.064     429.693    -380.057
  O      288.342     428.367    -379.600
  C      287.399     430.612    -379.020
  N      285.958     430.380    -378.910
  C      285.535     429.498    -377.924
  O      286.362     428.930    -377.194
  N      284.195     429.229    -377.794
  C      283.355     429.753    -378.631
  N      282.044     429.430    -378.476
  C      283.760     430.663    -379.730
  C      285.058     430.938    -379.797
  O      288.283     436.458    -381.652
  O      290.453     435.096    -382.107
  H      289.090     428.413    -378.962
  H      287.340     436.537    -381.877
  H      283.023     431.063    -380.406
  H      285.451     431.605    -380.559
  H      287.850     430.457    -378.023
  H      287.439     429.619    -380.949
  H      289.743     430.226    -381.360
  H      289.653     432.527    -379.736
  H      281.809     428.780    -377.730
  H      289.460     432.523    -382.248
  H      281.303     429.735    -379.098
  H      287.754     432.075    -382.090
  P      291.755     429.630    -379.785
  C      292.931     431.929    -379.954
  O      292.531     430.744    -380.632
  O      291.755     428.250    -380.360
  O      292.553     429.647    -378.387
  H      293.082     428.821    -378.331
  H      293.435     432.579    -380.639
  H      293.591     431.675    -379.151
  H      292.067     432.424    -379.562

 6  7  8  9  10  11  12  13  14  15  16  26  30  31  32  33  35 0
 6-311+G(2d,p)
 ****
 37  38 0
 6-311+G(2d,p)
 ****
 1  2  3  4  5  17  18  19  20  21  22  23  24  25 0
 3-21G
 ****
 27  28  29  34  36  39  40  41  42  43  44  45  46 0
 3-21G
 ****


