%nproc=1
%NoSave
%Mem=1900MB
#P OB98/GEN NMR

erre ene a

0 1
  C       92.428    -180.467    -199.709
  O       91.520    -180.864    -200.744
  P       91.912    -180.788    -202.299
  C       90.147    -182.615    -202.722
  O       90.698    -181.378    -203.166
  C       88.846    -182.953    -203.459
  O       87.819    -181.991    -203.152
  C       88.968    -182.968    -204.980
  O       89.567    -184.171    -205.422
  C       87.511    -182.783    -205.396
  O       86.807    -184.034    -205.332
  C       86.994    -181.822    -204.319
  N       84.070    -177.906    -205.828
  C       83.765    -179.163    -205.436
  N       84.602    -180.149    -205.053
  C       85.877    -179.725    -205.077
  C       86.340    -178.476    -205.457
  C       85.371    -177.537    -205.851
  N       85.686    -176.263    -206.264
  N       87.715    -178.419    -205.378
  C       88.075    -179.609    -204.937
  N       87.000    -180.433    -204.741
  O       93.243    -181.383    -202.625
  O       91.891    -179.225    -202.647
  H       87.267    -184.658    -205.922
  H       92.509    -179.044    -203.378
  H       82.707    -179.407    -205.430
  H       89.094    -179.918    -204.744
  H       85.970    -182.066    -204.017
  H       87.408    -182.402    -206.417
  H       89.553    -182.106    -205.318
  H       88.500    -183.929    -203.095
  H       89.948    -182.540    -201.648
  H       84.935    -175.659    -206.562
  H       86.658    -175.994    -206.329
  H       90.887    -183.406    -202.890
  P       91.028    -184.147    -206.079
  C       90.722    -186.655    -205.637
  O       91.450    -185.670    -206.346
  O       92.045    -183.322    -205.363
  O       90.767    -183.590    -207.559
  H       91.560    -183.111    -207.865
  H       91.110    -186.727    -204.616
  H       90.858    -187.619    -206.136
  H       89.658    -186.413    -205.611
  H       91.962    -180.600    -198.755
  H       92.688    -179.437    -199.838
  H       93.312    -181.067    -199.761

 3  4  5  6  7  8  9  10  11  12  22  25  29  30  31  32 0
 6-311+G(2d,p)
 ****
 33  36  37 0
 6-311+G(2d,p)
 ****
 1  2  13  14  15  16  17  18  19  20  21  23  24  26 0
 3-21G
 ****
 27  28  34  35  38  39  40  41  42  43  44  45  46  47  48 0
 3-21G
 ****


