%nproc=1
%NoSave
%Mem=1900MB
#P OB98/GEN NMR

erre ene a

0 1
  C      -11.336    -573.904    -234.992
  O      -10.963    -574.632    -233.842
  H      -11.923    -573.037    -234.684
  H      -11.949    -574.529    -235.647
  H      -10.449    -573.555    -235.534
  P       -9.921    -575.836    -234.054
  C       -9.686    -577.780    -235.761
  O      -10.505    -576.738    -235.246
  C      -10.545    -578.954    -236.217
  O      -11.829    -578.476    -236.691
  C       -9.941    -579.766    -237.354
  O       -8.999    -580.720    -236.882
  C      -11.187    -580.449    -237.902
  O      -11.558    -581.546    -237.035
  C      -12.229    -579.332    -237.805
  N      -15.263    -577.869    -241.600
  C      -15.508    -578.743    -240.551
  N      -16.726    -579.310    -240.512
  N      -14.627    -579.030    -239.624
  C      -13.443    -578.395    -239.796
  C      -13.084    -577.511    -240.793
  C      -14.067    -577.196    -241.803
  O      -13.914    -576.414    -242.741
  N      -11.801    -577.060    -240.623
  C      -11.374    -577.688    -239.547
  N      -12.328    -578.514    -239.011
  O      -10.144    -576.752    -232.755
  O       -8.495    -575.426    -234.195
  H      -10.739    -582.042    -236.851
  H       -9.284    -577.127    -232.488
  H      -15.969    -577.694    -242.290
  H      -10.388    -577.576    -239.113
  H      -13.232    -579.707    -237.589
  H      -11.037    -580.864    -238.896
  H      -17.432    -579.170    -241.220
  H       -9.511    -579.123    -238.128
  H      -16.939    -579.930    -239.733
  H      -10.740    -579.588    -235.343
  H       -8.998    -578.114    -234.975
  H       -9.102    -577.389    -236.597
  P       -8.089    -581.472    -237.975
  C       -8.452    -583.509    -239.545
  O       -8.978    -582.703    -238.494
  O       -6.965    -582.181    -237.079
  O       -7.504    -580.594    -239.024
  H       -6.168    -582.354    -237.618
  H       -9.150    -584.284    -239.783
  H       -7.527    -583.946    -239.231
  H       -8.284    -582.902    -240.410

 6  7  8  9  10  11  12  13  14  15  26  29  33  34 0
 6-311+G(2d,p)
 ****
 36  38  39  40  41 0
 6-311+G(2d,p)
 ****
 1  2  3  4  5  16  17  18  19  20  21  22  23  24  25 0
 3-21G
 ****
 27  28  30  31  32  35  37  42  43  44  45  46  47 0
 3-21G
 ****
 48  49 0
 3-21G
 ****


