%nproc=1
%NoSave
%Mem=1900MB
#P OB98/GEN NMR

erre ene a

0 1
  C      -33.100    -618.483     144.069
  O      -33.624    -619.322     145.089
  P      -34.830    -620.314     144.694
  C      -37.249    -619.941     143.827
  O      -36.094    -619.365     144.427
  C      -38.503    -619.164     144.226
  O      -38.386    -617.790     143.830
  C      -39.784    -619.673     143.573
  O      -40.323    -620.798     144.256
  C      -40.692    -618.466     143.756
  O      -41.199    -618.426     145.103
  C      -39.722    -617.302     143.530
  N      -41.841    -613.871     140.386
  C      -42.085    -614.175     141.674
  N      -41.483    -615.108     142.440
  C      -40.571    -615.793     141.726
  C      -40.246    -615.619     140.390
  C      -40.915    -614.596     139.708
  N      -40.651    -614.263     138.397
  N      -39.263    -616.511     140.009
  C      -38.995    -617.204     141.098
  N      -39.749    -616.798     142.165
  O      -35.186    -621.020     146.089
  O      -34.510    -621.300     143.627
  H      -40.423    -618.463     145.698
  H      -35.626    -621.876     145.923
  H      -42.852    -613.580     142.158
  H      -38.259    -617.991     141.161
  H      -39.916    -616.455     144.191
  H      -41.558    -618.478     143.091
  H      -39.644    -619.868     142.508
  H      -38.586    -619.204     145.318
  H      -37.343    -620.980     144.161
  H      -41.041    -613.407     138.040
  H      -39.828    -614.671     137.962
  H      -37.123    -619.932     142.736
  P      -41.289    -621.762     143.408
  C      -43.820    -621.661     142.817
  O      -42.669    -620.971     143.279
  O      -41.613    -622.945     144.431
  O      -40.685    -622.260     142.131
  H      -41.839    -623.761     143.948
  H      -44.711    -621.083     143.080
  H      -43.893    -622.651     143.279
  H      -43.774    -621.768     141.729
  H      -32.311    -617.883     144.471
  H      -33.876    -617.848     143.696
  H      -32.719    -619.086     143.272

 3  4  5  6  7  8  9  10  11  12  22  25  29  30  31  32 0
 6-311+G(2d,p)
 ****
 33  36  37 0
 6-311+G(2d,p)
 ****
 1  2  13  14  15  16  17  18  19  20  21  23  24  26 0
 3-21G
 ****
 27  28  34  35  38  39  40  41  42  43  44  45  46  47  48 0
 3-21G
 ****


