%nproc=1
%NoSave
%Mem=1900MB
#P OB98/GEN NMR

erre ene a

0 1
  C      535.088     431.201    -901.698
  O      536.365     431.238    -901.064
  P      537.599     431.813    -901.912
  C      539.473     433.560    -901.484
  O      538.328     432.877    -900.972
  C      539.860     434.720    -900.556
  O      538.743     435.628    -900.387
  C      540.238     434.289    -899.134
  O      541.594     433.844    -899.057
  C      540.079     435.602    -898.391
  O      541.214     436.452    -898.613
  C      538.832     436.198    -899.075
  N      536.530     436.430    -894.501
  C      537.803     436.709    -894.881
  N      538.346     436.598    -896.112
  C      537.438     436.129    -897.003
  C      536.117     435.780    -896.734
  C      535.664     435.953    -895.416
  N      534.363     435.704    -895.040
  N      535.494     435.340    -897.891
  C      536.417     435.442    -898.837
  N      537.607     435.928    -898.346
  O      536.891     432.721    -903.032
  O      538.482     430.766    -902.523
  H      541.207     436.703    -899.566
  H      537.469     432.819    -903.791
  H      538.471     437.044    -894.091
  H      536.278     435.186    -899.880
  H      538.907     437.295    -899.184
  H      539.995     435.468    -897.303
  H      539.537     433.553    -898.743
  H      540.685     435.261    -901.026
  H      539.242     433.961    -902.472
  H      534.073     436.026    -894.129
  H      533.675     435.545    -895.752
  H      540.295     432.849    -901.568
  P      542.159     433.514    -897.602
  C      543.790     431.716    -896.664
  O      543.050     432.197    -897.774
  O      540.863     433.000    -896.806
  O      542.820     434.686    -896.919
  H      540.967     433.149    -895.842
  H      544.069     430.678    -896.851
  H      543.174     431.738    -895.745
  H      544.692     432.319    -896.516
  H      534.365     430.797    -901.020
  H      535.141     430.585    -902.571
  H      534.800     432.193    -901.978

 3  4  5  6  7  8  9  10  11  12  22  25  29  30  31  32 0
 6-311+G(2d,p)
 ****
 33  36  37 0
 6-311+G(2d,p)
 ****
 1  2  13  14  15  16  17  18  19  20  21  23  24  26 0
 3-21G
 ****
 27  28  34  35  38  39  40  41  42  43  44  45  46  47  48 0
 3-21G
 ****


