%nproc=1
%NoSave
%Mem=1900MB
#P OB98/GEN NMR

erre ene a

0 1
  C     -405.405     305.740     158.920
  O     -405.884     305.998     157.605
  P     -405.567     304.905     156.472
  C     -408.016     304.962     155.527
  O     -406.626     305.099     155.285
  C     -408.833     305.313     154.270
  O     -408.946     306.758     154.180
  C     -408.215     304.878     152.945
  O     -409.233     304.873     151.935
  C     -407.238     306.004     152.668
  O     -406.841     306.037     151.300
  C     -408.018     307.245     153.171
  N     -407.150     308.295     153.741
  C     -406.663     309.287     152.887
  O     -406.911     309.347     151.681
  N     -405.834     310.219     153.459
  C     -405.482     310.282     154.775
  O     -404.667     311.087     155.216
  C     -406.131     309.297     155.656
  C     -406.911     308.360     155.106
  O     -405.997     303.521     157.162
  O     -404.143     304.892     156.027
  H     -406.220     306.802     151.207
  H     -405.204     303.016     157.421
  H     -405.418     310.908     152.838
  H     -405.930     309.356     156.720
  H     -407.385     307.615     155.744
  H     -408.594     307.702     152.361
  H     -406.335     305.865     153.270
  H     -407.716     303.902     152.971
  H     -409.849     304.911     154.372
  H     -408.310     305.598     156.364
  H     -408.235     303.931     155.826
  P     -410.012     303.503     151.648
  C     -412.204     304.736     151.120
  O     -411.200     303.862     150.631
  O     -410.399     302.706     152.854
  O     -408.981     302.697     150.712
  H     -409.204     301.749     150.716
  H     -412.616     305.298     150.277
  H     -411.796     305.449     151.854
  H     -413.001     304.152     151.593
  H     -405.686     306.545     159.566
  H     -404.339     305.654     158.901
  H     -405.830     304.827     159.282

 3  4  5  6  7  8  9  10  11  12  13  23  28  29  30  31  32 0
 6-311+G(2d,p)
 ****
 33  34 0
 6-311+G(2d,p)
 ****
 1  2  14  15  16  17  18  19  20  21  22  24  25  26  27 0
 3-21G
 ****
 35  36  37  38  39  40  41  42  43  44  45 0
 3-21G
 ****


