%nproc=1
%NoSave
%Mem=1900MB
#P OB98/GEN NMR

erre ene a

0 1
  C       79.135     223.781     245.952
  O       80.507     223.442     246.051
  P       81.446     223.223     244.775
  C       83.428     224.509     245.869
  O       82.978     223.301     245.265
  C       84.855     224.888     245.462
  O       84.953     224.899     244.019
  C       85.175     226.312     245.925
  O       85.612     226.547     247.251
  C       86.074     226.889     244.837
  O       87.461     226.827     245.181
  C       85.779     226.008     243.623
  N       85.789     230.104     240.637
  C       86.800     229.606     241.435
  N       87.874     230.416     241.596
  N       86.750     228.445     242.034
  C       85.568     227.803     241.852
  C       84.506     228.187     241.077
  C       84.591     229.456     240.389
  O       83.684     229.967     239.739
  N       83.445     227.317     241.192
  C       83.853     226.425     242.071
  N       85.122     226.702     242.533
  O       81.055     223.932     243.521
  O       81.251     221.639     244.512
  H       87.586     227.287     246.031
  H       81.299     221.497     243.549
  H       85.855     231.043     240.266
  H       83.270     225.589     242.434
  H       86.707     225.582     243.220
  H       85.851     227.948     244.677
  H       87.886     231.366     241.274
  H       84.245     226.883     245.851
  H       88.556     230.159     242.304
  H       85.578     224.139     245.801
  H       83.355     224.378     246.954
  H       82.746     225.321     245.596
  P       85.094     227.702     248.229
  C       86.311     226.672     250.229
  O       86.136     227.833     249.442
  O       83.797     227.083     248.927
  O       84.758     228.995     247.551
  H       83.227     227.801     249.258
  H       86.772     226.947     251.181
  H       86.963     225.968     249.706
  H       85.348     226.183     250.434
  H       78.719     223.874     246.933
  H       78.616     223.014     245.416
  H       79.034     224.711     245.432

 3  4  5  6  7  8  9  10  11  12  23  26  30  31 0
 6-311+G(2d,p)
 ****
 33  35  36  37  38 0
 6-311+G(2d,p)
 ****
 1  2  13  14  15  16  17  18  19  20  21  22  24  25 0
 3-21G
 ****
 27  28  29  32  34  39  40  41  42  43  44  45  46  47  48  49 0
 3-21G
 ****


