%nproc=1
%NoSave
%Mem=1900MB
#P OB98/GEN NMR

erre ene a

0 1
  C       10.023    -684.188     191.760
  O       10.444    -684.744     193.007
  P        9.363    -684.732     194.198
  C        9.861    -687.154     194.993
  O        9.847    -685.766     195.325
  C       10.779    -687.951     195.921
  O       12.160    -687.717     195.549
  C       10.647    -687.605     197.414
  O       10.797    -688.802     198.177
  C       11.879    -686.736     197.682
  O       12.238    -686.730     199.051
  C       12.883    -687.414     196.752
  N       17.730    -686.432     197.862
  C       16.913    -687.455     198.292
  N       17.465    -688.343     199.166
  N       15.676    -687.619     197.909
  C       15.266    -686.683     197.014
  C       15.981    -685.610     196.508
  C       17.337    -685.432     196.972
  O       18.088    -684.514     196.674
  N       15.225    -684.886     195.621
  C       14.058    -685.496     195.609
  N       14.032    -686.585     196.445
  O        8.086    -685.438     193.537
  O        9.029    -683.361     194.690
  H       12.472    -687.648     199.285
  H        7.310    -684.848     193.595
  H       18.671    -686.348     198.205
  H       13.196    -685.177     195.029
  H       13.253    -688.351     197.181
  H       11.657    -685.711     197.363
  H       18.431    -688.316     199.448
  H        9.719    -687.101     197.680
  H       16.901    -689.131     199.453
  H       10.573    -689.017     195.763
  H       10.202    -687.274     193.961
  H        8.834    -687.536     195.049
  P        9.635    -689.113     199.249
  C       10.389    -691.609     199.329
  O       10.129    -690.417     200.049
  O        8.436    -689.667     198.341
  O        9.230    -687.946     200.073
  H        7.582    -689.492     198.764
  H       10.418    -691.447     198.249
  H        9.603    -692.341     199.559
  H       11.353    -692.007     199.651
  H       10.823    -684.253     191.052
  H        9.753    -683.162     191.900
  H        9.178    -684.733     191.394

 3  4  5  6  7  8  9  10  11  12  23  26  30  31  33  0
 6-311+G(2d,p)
 ****
 35  36  37  38 0
 6-311+G(2d,p)
 ****
 1  2  13  14  15  16  17  18  19  20  21  22  24  25  27  28  29 0
 3-21G
 ****
 32  34  39  40  41  42  43  44  45  46  47  48  49 0
 3-21G
 ****


