%nproc=1
%NoSave
%Mem=1900MB
#P OB98/GEN NMR

erre ene a

0 1
  C      -35.883    -364.578    -158.341
  O      -34.988    -364.527    -157.234
  P      -34.300    -365.907    -156.773
  C      -35.162    -368.047    -155.587
  O      -35.438    -366.703    -155.963
  C      -36.415    -368.708    -155.020
  O      -37.390    -368.870    -156.066
  C      -36.185    -370.106    -154.457
  O      -35.655    -370.066    -153.142
  C      -37.608    -370.653    -154.461
  O      -38.308    -370.189    -153.289
  C      -38.208    -370.020    -155.729
  N      -40.872    -373.556    -158.190
  C      -41.189    -372.837    -157.050
  N      -42.399    -373.084    -156.504
  N      -40.387    -371.967    -156.493
  C      -39.229    -371.801    -157.168
  C      -38.804    -372.449    -158.314
  C      -39.676    -373.448    -158.889
  O      -39.418    -374.160    -159.859
  N      -37.572    -371.995    -158.713
  C      -37.269    -371.051    -157.840
  N      -38.232    -370.914    -156.871
  O      -33.289    -365.440    -155.627
  O      -33.607    -366.662    -157.856
  H      -37.743    -370.398    -152.515
  H      -32.559    -366.080    -155.546
  H      -41.533    -374.202    -158.586
  H      -36.369    -370.444    -157.878
  H      -39.222    -369.656    -155.546
  H      -37.643    -371.752    -154.439
  H      -43.108    -373.642    -156.956
  H      -35.560    -370.710    -155.128
  H      -42.666    -372.539    -155.692
  H      -36.835    -368.049    -154.252
  H      -34.381    -368.051    -154.820
  H      -34.794    -368.594    -156.460
  P      -35.122    -371.461    -152.545
  C      -36.519    -373.534    -151.843
  O      -36.393    -372.129    -151.830
  O      -34.185    -371.008    -151.329
  O      -34.392    -372.315    -153.526
  H      -33.508    -371.687    -151.149
  H      -35.547    -374.028    -151.756
  H      -37.001    -373.851    -152.774
  H      -37.145    -373.842    -151.001
  H      -36.264    -363.598    -158.537
  H      -36.695    -365.237    -158.113
  H      -35.363    -364.938    -159.204

 3  4  5  6  7  8  9  10  11  12  23  26  30  31  33  0
 6-311+G(2d,p)
 ****
 35  36  37  38 0
 6-311+G(2d,p)
 ****
 1  2  13  14  15  16  17  18  19  20  21  22  24  25  27  28  29 0
 3-21G
 ****
 32  34  39  40  41  42  43  44  45  46  47  48  49 0
 3-21G
 ****


