%nproc=1
%NoSave
%Mem=1900MB
#P OB98/GEN NMR

erre ene a

0 1
  C      119.782     -78.067    1271.970
  O      120.147     -77.431    1273.176
  H      119.315     -77.331    1271.311
  H      119.054     -78.862    1272.173
  H      120.661     -78.487    1271.464
  P      120.997     -78.247    1274.262
  C      120.651     -80.428    1275.607
  O      120.039     -79.414    1274.807
  C      119.633     -81.527    1275.898
  O      119.182     -82.130    1274.663
  C      120.207     -82.678    1276.733
  O      120.312     -82.317    1278.091
  C      119.198     -83.778    1276.442
  O      118.021     -83.613    1277.247
  C      118.874     -83.520    1274.949
  N      119.603     -84.414    1274.050
  C      119.036     -85.667    1273.834
  O      117.997     -86.037    1274.377
  N      119.716     -86.504    1272.985
  C      120.951     -86.239    1272.443
  O      121.559     -87.054    1271.751
  C      121.509     -84.918    1272.716
  C      120.830     -84.077    1273.509
  O      121.660     -77.430    1275.317
  O      122.061     -79.050    1273.377
  H      118.300     -83.795    1278.174
  H      122.941     -78.618    1273.467
  H      119.328     -87.417    1272.822
  H      122.477     -84.677    1272.294
  H      121.230     -83.097    1273.728
  H      117.798     -83.644    1274.765
  H      119.595     -84.763    1276.639
  H      121.191     -82.988    1276.329
  H      118.765     -81.081    1276.400
  H      120.980     -79.975    1276.547
  H      121.523     -80.815    1275.073
  P      120.947     -83.349    1279.146
  C      120.655     -85.862    1279.605
  O      120.024     -84.663    1279.168
  O      121.252     -82.777    1280.491
  O      122.289     -83.847    1278.428
  H      123.061     -83.611    1278.981
  H      119.950     -86.666    1279.579
  H      121.012     -85.733    1280.605
  H      121.478     -86.088    1278.959

 6  7  8  9  10  11  12  13  14  15  16  26  31  32  33  34  35 0
 6-311+G(2d,p)
 ****
 36  37 0
 6-311+G(2d,p)
 ****
 1  2  3  4  5  17  18  19  20  21  22  23  24  25 0
 3-21G
 ****
 27  28  29  30  38  39  40  41  42  43  44  45 0
 3-21G
 ****


