%nproc=1
%NoSave
%Mem=1900MB
#P OB98/GEN NMR

erre ene a

0 1
  C       27.144    -447.121     470.190
  O       26.312    -448.122     470.741
  H       26.640    -446.681     469.325
  H       28.093    -447.558     469.867
  H       27.334    -446.336     470.928
  P       26.783    -448.780     472.122
  C       27.460    -451.080     471.045
  O       27.863    -449.918     471.772
  C       28.690    -451.818     470.523
  O       29.301    -451.117     469.425
  C       29.811    -451.943     471.547
  O       29.508    -452.849     472.578
  C       30.954    -452.386     470.642
  O       30.863    -453.790     470.345
  C       30.689    -451.534     469.372
  N       31.594    -450.400     469.264
  C       32.855    -450.681     468.705
  O       33.132    -451.820     468.340
  N       33.763    -449.657     468.607
  C       33.453    -448.463     469.011
  N       34.404    -447.503     468.895
  C       32.136    -448.127     469.569
  C       31.258    -449.135     469.679
  O       25.502    -449.630     472.567
  O       27.273    -447.814     473.156
  H       31.165    -454.260     471.154
  H       25.188    -450.246     471.881
  H       31.902    -447.111     469.884
  H       30.265    -448.966     470.085
  H       30.801    -452.152     468.468
  H       31.925    -452.225     471.108
  H       30.061    -450.946     471.946
  H       28.363    -452.809     470.164
  H       35.307    -447.777     468.521
  H       26.792    -450.809     470.218
  H       34.281    -446.543     469.201
  H       26.889    -451.719     471.731
  P       30.473    -452.978     473.857
  C       30.826    -455.465     473.305
  O       31.458    -454.214     473.559
  O       29.775    -453.040     475.175
  O       31.458    -451.718     473.700
  H       31.981    -451.712     472.877
  H       31.571    -456.210     473.121
  H       30.191    -455.376     472.448
  H       30.241    -455.748     474.155

 6  7  8  9  10  11  12  13  14  15  16  26  30  31  32  33  35 0
 6-311+G(2d,p)
 ****
 37  38 0
 6-311+G(2d,p)
 ****
 1  2  3  4  5  17  18  19  20  21  22  23  24  25 0
 3-21G
 ****
 27  28  29  34  36  39  40  41  42  43  44  45  46 0
 3-21G
 ****


