%nproc=1
%NoSave
%Mem=1900MB
#P OB98/GEN NMR

erre ene a

0 1
  C     -128.409    -112.527     -63.526
  O     -129.410    -113.464     -63.159
  P     -130.499    -113.974     -64.226
  C     -130.409    -116.518     -63.783
  O     -130.017    -115.447     -64.633
  C     -129.843    -117.833     -64.311
  O     -128.403    -117.812     -64.219
  C     -130.288    -119.069     -63.541
  O     -131.620    -119.430     -63.878
  C     -129.213    -120.069     -63.948
  O     -129.498    -120.605     -65.250
  C     -127.957    -119.171     -64.013
  N     -127.123    -119.280     -62.821
  C     -125.790    -119.647     -63.023
  O     -125.353    -119.858     -64.154
  N     -124.959    -119.735     -61.931
  C     -125.426    -119.503     -60.743
  N     -124.542    -119.539     -59.708
  C     -126.835    -119.169     -60.480
  C     -127.618    -119.068     -61.554
  O     -130.724    -113.053     -65.378
  O     -131.806    -114.261     -63.359
  H     -129.498    -119.851     -65.870
  H     -132.392    -113.470     -63.256
  H     -127.182    -118.995     -59.470
  H     -128.665    -118.806     -61.448
  H     -127.355    -119.432     -64.891
  H     -129.113    -120.910     -63.254
  H     -130.232    -118.886     -62.460
  H     -130.117    -117.926     -65.371
  H     -123.560    -119.597     -59.951
  H     -131.503    -116.575     -63.775
  H     -124.751    -119.098     -58.820
  H     -130.058    -116.318     -62.766
  P     -132.407    -120.390     -62.864
  C     -133.827    -118.512     -61.776
  O     -132.802    -119.470     -61.607
  O     -131.259    -121.359     -62.305
  O     -133.536    -121.147     -63.480
  H     -131.298    -122.223     -62.757
  H     -134.131    -118.149     -60.792
  H     -134.696    -118.955     -62.272
  H     -133.453    -117.665     -62.363
  H     -127.788    -112.319     -62.680
  H     -128.873    -111.622     -63.860
  H     -127.812    -112.934     -64.315

 3  4  5  6  7  8  9  10  11  12  13  23  27  28  29  30  32 0
 6-311+G(2d,p)
 ****
 34  35 0
 6-311+G(2d,p)
 ****
 1  2  14  15  16  17  18  19  20  21  22  24  25  26 0
 3-21G
 ****
 31  33  36  37  38  39  40  41  42  43  44  45  46 0
 3-21G
 ****


