%nproc=1
%NoSave
%Mem=1900MB
#P OB98/GEN NMR

erre ene a

0 1
  C       19.920     -76.984     -39.930
  O       18.917     -76.014     -40.185
  P       18.460     -75.054     -38.988
  C       16.229     -76.348     -38.661
  O       16.859     -75.102     -38.912
  C       14.999     -76.513     -39.556
  O       14.039     -75.453     -39.260
  C       15.306     -76.446     -41.059
  O       14.392     -77.332     -41.728
  C       14.961     -75.009     -41.400
  O       14.734     -74.801     -42.786
  C       13.727     -74.808     -40.512
  N       13.383     -73.402     -40.326
  C       12.409     -72.864     -41.163
  O       11.830     -73.498     -42.044
  N       12.157     -71.527     -41.000
  C       12.827     -70.678     -40.171
  O       12.629     -69.465     -40.156
  C       13.843     -71.299     -39.309
  C       14.072     -72.611     -39.423
  O       18.770     -73.590     -39.555
  O       19.148     -75.308     -37.690
  H       15.524     -75.113     -43.262
  H       19.609     -73.253     -39.187
  H       11.446     -71.125     -41.589
  H       14.380     -70.656     -38.624
  H       14.830     -73.091     -38.817
  H       12.866     -75.340     -40.939
  H       15.784     -74.354     -41.093
  H       16.339     -76.706     -41.309
  H       14.511     -77.467     -39.310
  H       15.921     -76.389     -37.616
  H       16.942     -77.163     -38.832
  P       14.856     -77.967     -43.131
  C       12.995     -77.050     -44.728
  O       13.529     -78.146     -44.012
  O       15.218     -79.460     -42.673
  O       15.993     -77.244     -43.772
  H       14.563     -79.835     -42.059
  H       13.784     -76.386     -45.094
  H       12.325     -76.486     -44.075
  H       12.428     -77.428     -45.580
  H       20.112     -77.541     -40.823
  H       19.587     -77.648     -39.160
  H       20.818     -76.494     -39.615

 3  4  5  6  7  8  9  10  11  12  13  23  28  29  30  31  32 0
 6-311+G(2d,p)
 ****
 33  34 0
 6-311+G(2d,p)
 ****
 1  2  14  15  16  17  18  19  20  21  22  24  25  26 0
 3-21G
 ****
 27  35  36  37  38  39  40  41  42  43  44  45 0
 3-21G
 ****


