%nproc=1
%NoSave
%Mem=1900MB
#P OB98/GEN NMR

erre ene a

0 1
  C     -287.103      -4.074     -89.774
  O     -285.758      -3.684     -89.545
  P     -285.412      -2.979     -88.146
  C     -285.424      -0.590     -89.136
  O     -284.661      -1.605     -88.501
  C     -284.624       0.701     -89.262
  O     -285.369       1.642     -90.083
  C     -284.322       1.389     -87.923
  O     -282.959       1.842     -87.918
  C     -285.217       2.620     -87.951
  O     -284.707       3.665     -87.130
  C     -285.219       2.927     -89.446
  N     -286.391       7.788     -90.158
  C     -285.159       7.200     -89.954
  N     -284.098       8.030     -89.871
  N     -284.980       5.910     -89.839
  C     -286.126       5.194     -89.971
  C     -287.401       5.664     -90.187
  C     -287.593       7.094     -90.252
  O     -288.671       7.685     -90.343
  N     -288.300       4.631     -90.282
  C     -287.574       3.543     -90.123
  N     -286.255       3.834     -89.886
  O     -284.250      -3.908     -87.555
  O     -286.552      -2.866     -87.191
  H     -285.374       4.383     -87.132
  H     -284.506      -4.233     -86.668
  H     -286.472       8.788     -90.224
  H     -287.962       2.529     -90.147
  H     -284.251       3.350     -89.754
  H     -286.212       2.347     -87.591
  H     -284.158       9.030     -89.992
  H     -284.509       0.764     -87.042
  H     -283.184       7.618     -89.744
  H     -283.691       0.479     -89.801
  H     -286.329      -0.396     -88.547
  H     -285.727      -0.944     -90.131
  P     -282.097       1.450     -86.620
  C     -283.022       3.370     -85.126
  O     -281.911       2.811     -85.795
  O     -280.641       1.163     -87.219
  O     -282.643       0.289     -85.859
  H     -280.141       0.566     -86.630
  H     -283.885       2.698     -85.121
  H     -283.304       4.303     -85.624
  H     -282.741       3.593     -84.093
  H     -287.183      -4.527     -90.740
  H     -287.736      -3.213     -89.730
  H     -287.403      -4.776     -89.025

 3  4  5  6  7  8  9  10  11  12  23  26  30  31  33  0
 6-311+G(2d,p)
 ****
 35  36  37  38 0
 6-311+G(2d,p)
 ****
 1  2  13  14  15  16  17  18  19  20  21  22  24  25  27  28  29 0
 3-21G
 ****
 32  34  39  40  41  42  43  44  45  46  47  48  49 0
 3-21G
 ****


