%nproc=1
%NoSave
%Mem=1900MB
#P OB98/GEN NMR

erre ene a

0 1
  C     -207.419     166.702      39.654
  O     -206.365     165.802      39.947
  P     -206.550     164.228      39.725
  C     -207.831     162.314      40.851
  O     -207.383     163.658      40.977
  C     -208.763     161.927      41.998
  O     -209.634     163.049      42.302
  C     -209.664     160.714      41.714
  O     -209.828     160.017      42.957
  C     -210.981     161.358      41.311
  O     -212.093     160.485      41.449
  C     -210.992     162.563      42.256
  N     -215.867     164.089      41.933
  C     -215.311     162.945      42.394
  N     -214.003     162.606      42.421
  C     -213.242     163.583      41.905
  C     -213.672     164.787      41.367
  C     -215.053     165.034      41.406
  N     -215.636     166.207      40.969
  N     -212.592     165.510      40.879
  C     -211.542     164.752      41.122
  N     -211.880     163.608      41.802
  O     -205.295     163.476      39.420
  O     -207.593     164.122      38.516
  H     -212.140     159.914      40.658
  H     -207.130     163.849      37.703
  H     -216.003     162.214      42.806
  H     -210.524     164.980      40.836
  H     -211.291     162.279      43.270
  H     -210.928     161.683      40.261
  H     -209.275     160.035      40.944
  H     -208.151     161.745      42.892
  H     -206.950     161.660      40.862
  H     -216.621     166.334      41.166
  H     -215.048     167.028      40.829
  H     -208.344     162.183      39.887
  P     -210.285     158.484      42.962
  C     -212.274     157.161      42.036
  O     -211.776     158.444      42.378
  O     -210.089     157.762      44.260
  O     -209.412     157.828      41.785
  H     -209.400     156.863      41.884
  H     -211.888     156.868      41.052
  H     -213.368     157.207      41.986
  H     -211.979     156.410      42.780
  H     -207.104     167.702      39.867
  H     -208.271     166.461      40.255
  H     -207.679     166.622      38.619

 3  4  5  6  7  8  9  10  11  12  22  25  29  30  31  32 0
 6-311+G(2d,p)
 ****
 33  36  37 0
 6-311+G(2d,p)
 ****
 1  2  13  14  15  16  17  18  19  20  21  23  24  26 0
 3-21G
 ****
 27  28  34  35  38  39  40  41  42  43  44  45  46  47  48 0
 3-21G
 ****


