%nproc=1
%NoSave
%Mem=1900MB
#P OB98/GEN NMR

erre ene a

0 1
  C       62.568      85.614     498.243
  O       62.324      84.702     499.288
  H       61.640      85.749     497.676
  H       63.328      85.223     497.562
  H       62.882      86.586     498.637
  P       63.531      84.284     500.265
  C       62.794      86.190     501.820
  O       63.881      85.614     501.104
  C       63.179      86.482     503.272
  O       64.258      87.461     503.298
  C       62.028      87.034     504.122
  O       61.973      86.344     505.374
  C       62.421      88.485     504.358
  O       61.831      89.037     505.530
  C       63.953      88.370     504.373
  N       64.602      89.663     504.211
  C       64.726      90.439     505.369
  O       64.315      90.018     506.452
  N       65.276      91.693     505.268
  C       65.614      92.152     504.103
  N       66.122      93.416     504.068
  C       65.469      91.377     502.851
  C       64.961      90.155     502.977
  O       64.694      83.647     499.577
  O       62.857      83.337     501.367
  H       60.870      88.825     505.532
  H       63.559      82.772     501.772
  H       65.764      91.813     501.905
  H       64.817      89.511     502.117
  H       64.299      87.918     505.314
  H       62.101      89.090     503.502
  H       61.055      86.957     503.632
  H       63.591      85.562     503.711
  H       66.195      93.916     504.946
  H       61.944      85.497     501.782
  H       66.398      93.886     503.215
  H       62.517      87.126     501.330
  P       60.519      85.838     505.842
  C       60.258      83.566     504.611
  O       59.904      84.939     504.662
  O       59.635      87.180     505.813
  O       60.518      85.211     507.195
  H       59.416      87.449     506.724
  H       59.774      83.104     503.776
  H       59.949      83.084     505.515
  H       61.319      83.475     504.503

 6  7  8  9  10  11  12  13  14  15  16  26  30  31  32  33  35 0
 6-311+G(2d,p)
 ****
 37  38 0
 6-311+G(2d,p)
 ****
 1  2  3  4  5  17  18  19  20  21  22  23  24  25 0
 3-21G
 ****
 27  28  29  34  36  39  40  41  42  43  44  45  46 0
 3-21G
 ****


