%nproc=1
%NoSave
%Mem=1900MB
#P OB98/GEN NMR

erre ene a

0 1
  C       46.614       3.009      25.739
  O       47.841       2.657      25.138
  H       45.803       2.548      25.171
  H       46.478       4.093      25.725
  H       46.574       2.641      26.768
  P       49.197       3.259      25.743
  C       50.683       1.350      24.843
  O       50.393       2.743      24.805
  C       51.626       0.975      23.693
  O       50.863       1.026      22.463
  C       52.812       1.941      23.568
  O       54.071       1.275      23.550
  C       52.437       2.796      22.363
  O       53.538       3.356      21.680
  C       51.572       1.854      21.522
  N       50.636       2.544      20.636
  C       50.782       2.339      19.268
  O       51.626       1.614      18.748
  N       49.890       3.011      18.470
  C       48.907       3.853      18.895
  O       48.137       4.424      18.133
  C       48.822       4.052      20.350
  C       49.676       3.399      21.141
  O       49.408       3.033      27.202
  O       49.118       4.820      25.397
  H       54.070       2.611      21.328
  H       48.904       5.322      26.206
  H       49.976       2.858      17.478
  H       48.061       4.724      20.721
  H       49.640       3.521      22.219
  H       52.196       1.208      20.903
  H       51.818       3.631      22.712
  H       52.883       2.587      24.451
  H       51.958      -0.059      23.833
  H       49.737       0.807      24.750
  H       51.148       1.097      25.801
  P       55.251       1.516      24.594
  C       55.998      -1.005      24.658
  O       56.335       0.355      24.417
  O       54.833       1.837      25.989
  O       56.018       2.809      24.010
  H       56.368       3.293      24.785
  H       56.856      -1.621      24.485
  H       55.209      -1.299      23.998
  H       55.676      -1.118      25.672

 6  7  8  9  10  11  12  13  14  15  16  26  31  32  33  34  35 0
 6-311+G(2d,p)
 ****
 36  37 0
 6-311+G(2d,p)
 ****
 1  2  3  4  5  17  18  19  20  21  22  23  24  25 0
 3-21G
 ****
 27  28  29  30  38  39  40  41  42  43  44  45 0
 3-21G
 ****


