%nproc=1
%NoSave
%Mem=1900MB
#P OB98/GEN NMR

erre ene a

0 1
  C     -103.449    -249.135      48.497
  O     -104.135    -249.144      49.750
  P     -103.997    -248.026      50.880
  C     -103.570    -248.262      53.467
  O     -103.248    -248.667      52.140
  C     -102.296    -248.007      54.289
  O     -101.552    -249.264      54.393
  C     -101.364    -246.981      53.634
  O     -100.792    -246.060      54.561
  C     -100.404    -247.854      52.840
  O      -99.193    -247.194      52.498
  C     -100.274    -249.083      53.739
  N      -96.486    -252.126      52.163
  C      -96.421    -250.889      52.772
  N      -95.184    -250.377      52.972
  N      -97.469    -250.199      53.129
  C      -98.643    -250.782      52.800
  C      -98.837    -252.002      52.186
  C      -97.669    -252.780      51.835
  O      -97.672    -253.891      51.318
  N     -100.176    -252.273      52.022
  C     -100.787    -251.213      52.519
  N      -99.896    -250.281      53.011
  O     -105.225    -247.228      51.164
  O     -102.888    -247.016      50.281
  H      -98.684    -247.058      53.325
  H     -103.120    -246.127      50.620
  H      -95.644    -252.624      51.929
  H     -101.856    -251.070      52.563
  H      -99.511    -248.947      54.511
  H     -100.901    -248.118      51.897
  H      -94.339    -250.798      52.610
  H     -101.920    -246.337      52.942
  H      -95.147    -249.385      53.210
  H     -102.589    -247.702      55.301
  H     -104.140    -249.087      53.904
  H     -104.212    -247.382      53.454
  P     -100.908    -244.466      54.585
  C      -99.778    -242.509      53.380
  O      -99.650    -243.847      53.815
  O     -100.636    -244.057      56.110
  O     -102.237    -243.934      54.134
  H     -101.428    -243.611      56.479
  H      -98.984    -242.292      52.652
  H      -99.665    -241.833      54.228
  H     -100.748    -242.340      52.901
  H     -103.725    -250.001      47.933
  H     -102.393    -249.143      48.669
  H     -103.715    -248.254      47.951

 3  4  5  6  7  8  9  10  11  12  23  26  30  31 0
 6-311+G(2d,p)
 ****
 33  35  36  37  38 0
 6-311+G(2d,p)
 ****
 1  2  13  14  15  16  17  18  19  20  21  22  24  25 0
 3-21G
 ****
 27  28  29  32  34  39  40  41  42  43  44  45  46  47  48  49 0
 3-21G
 ****


