%nproc=1
%NoSave
%Mem=1900MB
#P OB98/GEN NMR

erre ene a

0 1
  C       28.812    -312.441    -173.931
  O       28.229    -312.444    -172.639
  P       26.835    -311.675    -172.433
  C       27.868    -309.555    -171.343
  O       27.137    -310.096    -172.433
  C       27.412    -308.126    -171.035
  O       27.641    -307.833    -169.628
  C       28.152    -307.058    -171.849
  O       27.254    -305.968    -172.129
  C       29.202    -306.543    -170.882
  O       29.631    -305.228    -171.228
  C       28.446    -306.636    -169.559
  N       31.611    -303.949    -166.674
  C       30.673    -303.514    -167.588
  N       30.634    -302.183    -167.820
  N       29.842    -304.304    -168.209
  C       29.997    -305.613    -167.877
  C       30.882    -306.166    -166.973
  C       31.808    -305.274    -166.304
  O       32.680    -305.601    -165.506
  N       30.723    -307.525    -166.882
  C       29.772    -307.804    -167.758
  N       29.325    -306.685    -168.412
  O       26.479    -311.989    -170.901
  O       25.740    -312.120    -173.344
  H       30.003    -305.279    -172.132
  H       25.762    -312.653    -170.860
  H       32.236    -303.299    -166.225
  H       29.388    -308.795    -167.968
  H       27.762    -305.786    -169.425
  H       30.078    -307.202    -170.898
  H       31.293    -301.524    -167.428
  H       28.584    -307.423    -172.789
  H       29.983    -301.838    -168.519
  H       26.330    -308.059    -171.202
  H       28.929    -309.545    -171.593
  H       27.731    -310.192    -170.459
  P       26.946    -305.695    -173.683
  C       27.341    -303.125    -173.634
  O       27.783    -304.392    -174.078
  O       25.427    -305.185    -173.672
  O       27.135    -306.891    -174.563
  H       24.999    -305.365    -174.529
  H       28.102    -302.701    -172.969
  H       26.389    -303.179    -173.103
  H       27.223    -302.468    -174.503
  H       29.730    -312.990    -173.909
  H       29.006    -311.433    -174.232
  H       28.140    -312.898    -174.627

 3  4  5  6  7  8  9  10  11  12  23  26  30  31 0
 6-311+G(2d,p)
 ****
 33  35  36  37  38 0
 6-311+G(2d,p)
 ****
 1  2  13  14  15  16  17  18  19  20  21  22  24  25 0
 3-21G
 ****
 27  28  29  32  34  39  40  41  42  43  44  45  46  47  48  49 0
 3-21G
 ****


