%nproc=1
%NoSave
%Mem=1900MB
#P OB98/GEN NMR

erre ene a

0 1
  C      519.386    -394.116     493.224
  O      518.885    -392.865     492.793
  H      520.034    -394.522     492.433
  H      518.570    -394.826     493.392
  H      519.977    -393.996     494.134
  P      517.786    -392.135     493.704
  C      519.143    -389.942     493.483
  O      517.882    -390.580     493.327
  C      519.037    -388.470     493.079
  O      517.803    -387.907     493.572
  C      520.151    -387.615     493.656
  O      521.360    -387.806     492.952
  C      519.543    -386.226     493.528
  O      519.661    -385.722     492.195
  C      518.056    -386.513     493.876
  N      517.732    -386.215     495.265
  C      517.659    -384.858     495.601
  O      517.858    -383.995     494.751
  N      517.386    -384.528     496.917
  C      517.190    -385.458     497.791
  N      516.920    -385.059     499.062
  C      517.244    -386.903     497.476
  C      517.516    -387.202     496.207
  O      517.836    -392.417     495.174
  O      516.396    -392.586     493.047
  H      520.611    -385.786     491.967
  H      516.082    -393.411     493.456
  H      517.067    -387.641     498.243
  H      517.581    -388.241     495.895
  H      517.392    -385.922     493.231
  H      520.015    -385.516     494.200
  H      520.286    -387.828     494.726
  H      519.024    -388.408     491.980
  H      516.908    -384.064     499.236
  H      519.846    -390.456     492.824
  H      516.669    -385.690     499.815
  H      519.496    -390.020     494.513
  P      522.771    -387.609     493.697
  C      523.657    -389.397     492.046
  O      523.872    -388.113     492.633
  O      522.871    -388.223     495.060
  O      522.971    -386.015     493.690
  H      522.387    -385.584     494.349
  H      524.451    -389.614     491.363
  H      522.725    -389.398     491.521
  H      523.634    -390.141     492.814

 6  7  8  9  10  11  12  13  14  15  16  26  30  31  32  33  35 0
 6-311+G(2d,p)
 ****
 37  38 0
 6-311+G(2d,p)
 ****
 1  2  3  4  5  17  18  19  20  21  22  23  24  25 0
 3-21G
 ****
 27  28  29  34  36  39  40  41  42  43  44  45  46 0
 3-21G
 ****


