%nproc=1
%NoSave
%Mem=1900MB
#P OB98/GEN NMR

erre ene a

0 1
  C      -33.519     -64.879      57.571
  O      -34.223     -65.202      56.387
  H      -33.198     -65.808      58.052
  H      -34.156     -64.325      58.266
  H      -32.632     -64.287      57.328
  P      -35.035     -64.031      55.647
  C      -37.588     -63.820      55.954
  O      -36.311     -63.739      56.583
  C      -38.633     -63.007      56.719
  O      -38.329     -61.597      56.658
  C      -40.044     -63.124      56.160
  O      -40.627     -64.399      56.292
  C      -40.731     -61.921      56.790
  O      -41.173     -62.184      58.122
  C      -39.579     -60.887      56.808
  N      -39.741     -59.858      55.786
  C      -40.653     -58.849      56.076
  O      -41.318     -58.809      57.112
  N      -40.807     -57.890      55.110
  C      -40.187     -57.871      53.895
  O      -40.386     -56.991      53.063
  C      -39.264     -58.985      53.629
  C      -39.083     -59.914      54.573
  O      -35.382     -64.292      54.211
  O      -34.123     -62.735      55.863
  H      -41.306     -61.318      58.553
  H      -34.388     -62.005      55.251
  H      -41.453     -57.141      55.308
  H      -38.764     -59.009      52.670
  H      -38.404     -60.746      54.401
  H      -39.534     -60.386      57.787
  H      -41.603     -61.598      56.217
  H      -40.002     -62.925      55.081
  H      -38.596     -63.310      57.771
  H      -37.889     -64.873      55.943
  H      -37.510     -63.461      54.922
  P      -41.970     -64.843      55.553
  C      -44.511     -64.910      56.175
  O      -43.220     -64.372      56.440
  O      -41.995     -66.221      54.977
  O      -42.023     -63.796      54.320
  H      -42.425     -64.267      53.562
  H      -45.220     -64.488      56.856
  H      -44.487     -65.973      56.298
  H      -44.797     -64.674      55.171

 6  7  8  9  10  11  12  13  14  15  16  26  31  32  33  34  35 0
 6-311+G(2d,p)
 ****
 36  37 0
 6-311+G(2d,p)
 ****
 1  2  3  4  5  17  18  19  20  21  22  23  24  25 0
 3-21G
 ****
 27  28  29  30  38  39  40  41  42  43  44  45 0
 3-21G
 ****


