%nproc=1
%NoSave
%Mem=1900MB
#P OB98/GEN NMR

erre ene a

0 1
  C     -276.406      95.144     -45.782
  O     -276.040      93.971     -45.087
  H     -276.562      94.896     -46.834
  H     -275.600      95.881     -45.716
  H     -277.329      95.569     -45.382
  P     -276.023      93.989     -43.485
  C     -273.779      92.729     -43.274
  O     -275.178      92.699     -43.037
  C     -273.247      91.310     -43.480
  O     -273.242      90.634     -42.186
  C     -274.107      90.466     -44.445
  O     -273.243      89.577     -45.165
  C     -274.966      89.683     -43.475
  O     -275.518      88.533     -44.070
  C     -273.969      89.403     -42.355
  N     -274.641      88.978     -41.130
  C     -275.085      87.662     -41.080
  O     -274.945      86.860     -42.004
  N     -275.767      87.300     -39.951
  C     -276.139      88.138     -38.943
  O     -276.820      87.780     -37.992
  C     -275.690      89.534     -39.073
  C     -274.968      89.884     -40.141
  O     -277.350      94.126     -42.818
  O     -275.025      95.186     -43.113
  H     -276.164      88.788     -44.753
  H     -275.193      95.497     -42.203
  H     -276.085      86.345     -39.897
  H     -275.983      90.232     -38.299
  H     -274.637      90.907     -40.280
  H     -273.249      88.630     -42.656
  H     -275.796      90.303     -43.117
  H     -274.689      91.073     -45.144
  H     -272.207      91.361     -43.818
  H     -273.293      93.188     -42.404
  H     -273.573      93.341     -44.161
  P     -273.068      89.675     -46.758
  C     -274.133      87.399     -47.286
  O     -272.967      88.205     -47.405
  O     -271.984      90.609     -47.198
  O     -274.488      90.209     -47.279
  H     -274.343      90.922     -47.929
  H     -273.958      86.449     -47.746
  H     -274.954      87.885     -47.771
  H     -274.364      87.257     -46.251

 6  7  8  9  10  11  12  13  14  15  16  26  31  32  33  34  35 0
 6-311+G(2d,p)
 ****
 36  37 0
 6-311+G(2d,p)
 ****
 1  2  3  4  5  17  18  19  20  21  22  23  24  25 0
 3-21G
 ****
 27  28  29  30  38  39  40  41  42  43  44  45 0
 3-21G
 ****


