%nproc=1
%NoSave
%Mem=1900MB
#P OB98/GEN NMR

erre ene a

0 1
  C       68.449     -31.010      23.410
  O       68.896     -30.692      24.728
  P       68.365     -31.574      25.957
  C       70.741     -32.372      26.547
  O       69.413     -32.760      26.214
  C       71.652     -33.595      26.657
  O       71.785     -34.277      25.395
  C       73.071     -33.251      27.079
  O       73.126     -32.934      28.460
  C       73.818     -34.511      26.672
  O       73.684     -35.536      27.671
  C       73.073     -34.928      25.384
  N       73.814     -34.628      24.169
  C       74.880     -35.484      23.873
  O       75.171     -36.402      24.639
  N       75.598     -35.265      22.722
  C       75.283     -34.276      21.944
  N       76.026     -34.110      20.818
  C       74.175     -33.344      22.228
  C       73.494     -33.572      23.349
  O       66.934     -31.993      25.880
  O       68.616     -30.611      27.218
  H       72.738     -35.780      27.680
  H       67.943     -30.803      27.899
  H       73.948     -32.538      21.544
  H       72.666     -32.934      23.635
  H       72.873     -36.008      25.395
  H       74.888     -34.326      26.542
  H       73.435     -32.399      26.491
  H       71.205     -34.289      27.383
  H       76.788     -34.755      20.652
  H       70.735     -31.826      27.494
  H       75.829     -33.402      20.125
  H       71.107     -31.675      25.785
  P       73.126     -31.385      28.869
  C       70.759     -31.431      29.923
  O       71.604     -30.894      28.924
  O       73.697     -30.667      27.554
  O       73.954     -31.053      30.068
  H       74.224     -29.888      27.810
  H       69.884     -30.783      30.025
  H       71.268     -31.488      30.888
  H       70.424     -32.428      29.625
  H       68.892     -30.333      22.710
  H       67.383     -30.924      23.364
  H       68.736     -32.012      23.168

 3  4  5  6  7  8  9  10  11  12  13  23  27  28  29  30  32 0
 6-311+G(2d,p)
 ****
 34  35 0
 6-311+G(2d,p)
 ****
 1  2  14  15  16  17  18  19  20  21  22  24  25  26 0
 3-21G
 ****
 31  33  36  37  38  39  40  41  42  43  44  45  46 0
 3-21G
 ****


