%nproc=1
%NoSave
%Mem=1900MB
#P OB98/GEN NMR

erre ene a

0 1
  C     -130.109    -134.747    -134.936
  O     -129.634    -134.814    -136.266
  H     -129.259    -134.590    -134.268
  H     -130.604    -135.683    -134.666
  H     -130.805    -133.912    -134.824
  P     -130.740    -135.026    -137.409
  C     -131.179    -133.885    -139.710
  O     -130.263    -134.138    -138.657
  C     -130.641    -132.787    -140.635
  O     -130.827    -131.494    -139.984
  C     -129.141    -132.913    -140.946
  O     -128.905    -132.337    -142.241
  C     -128.527    -132.027    -139.872
  O     -127.179    -131.738    -140.165
  C     -129.526    -130.873    -139.901
  N     -126.472    -127.955    -137.019
  C     -126.247    -128.631    -138.167
  N     -127.114    -129.375    -138.883
  C     -128.331    -129.371    -138.313
  C     -128.712    -128.722    -137.149
  C     -127.715    -127.988    -136.485
  N     -127.938    -127.305    -135.310
  N     -130.050    -128.951    -136.877
  C     -130.465    -129.724    -137.861
  N     -129.463    -130.010    -138.746
  O     -132.011    -134.238    -136.840
  O     -131.061    -136.446    -137.735
  H     -126.613    -132.525    -140.015
  H     -132.607    -134.857    -136.378
  H     -125.238    -128.567    -138.563
  H     -131.472    -130.113    -137.973
  H     -129.398    -130.247    -140.792
  H     -128.538    -132.530    -138.898
  H     -128.781    -133.947    -140.935
  H     -131.240    -132.766    -141.555
  H     -132.134    -133.568    -139.273
  H     -131.336    -134.803    -140.287
  H     -127.166    -126.816    -134.889
  H     -128.857    -127.333    -134.891
  P     -128.898    -133.291    -143.534
  C     -130.263    -133.356    -145.767
  O     -129.733    -132.577    -144.704
  O     -129.896    -134.464    -143.087
  O     -127.568    -133.846    -143.923
  H     -129.656    -135.291    -143.550
  H     -130.786    -132.719    -146.450
  H     -130.938    -134.086    -145.372
  H     -129.464    -133.850    -146.280

 6  7  8  9  10  11  12  13  14  15  25  28  32  33  34  35 0
 6-311+G(2d,p)
 ****
 36  37  40 0
 6-311+G(2d,p)
 ****
 1  2  3  4  5  16  17  18  19  20  21  22  23  24 0
 3-21G
 ****
 26  27  29  30  31  38  39 41  42  43  44  45  46  47  48 0
 3-21G
 ****


