%nproc=1
%NoSave
%Mem=1900MB
#P OB98/GEN NMR

erre ene a

0 1
  C     -193.613     225.882    -288.937
  O     -192.361     225.610    -288.339
  H     -193.550     225.752    -290.021
  H     -194.351     225.177    -288.543
  H     -193.934     226.899    -288.699
  P     -191.132     226.544    -288.776
  C     -190.754     227.292    -286.317
  O     -191.031     227.687    -287.654
  C     -189.447     227.924    -285.855
  O     -188.350     227.448    -286.666
  C     -189.413     229.444    -285.965
  O     -190.060     230.076    -284.874
  C     -187.914     229.692    -285.933
  O     -187.431     229.572    -284.582
  C     -187.388     228.531    -286.792
  N     -184.968     227.374    -291.148
  C     -184.879     226.860    -289.903
  N     -185.554     227.229    -288.795
  C     -186.397     228.236    -289.065
  C     -186.591     228.866    -290.283
  C     -185.832     228.391    -291.365
  N     -185.911     228.922    -292.635
  N     -187.516     229.888    -290.163
  C     -187.894     229.848    -288.902
  N     -187.239     228.875    -288.194
  O     -191.695     227.334    -290.050
  O     -189.851     225.835    -289.064
  H     -187.694     228.683    -284.270
  H     -190.955     227.678    -290.584
  H     -184.166     226.047    -289.780
  H     -188.636     230.499    -288.455
  H     -186.421     228.155    -286.442
  H     -187.637     230.684    -286.288
  H     -189.813     229.789    -286.924
  H     -189.261     227.602    -284.821
  H     -190.667     226.201    -286.273
  H     -185.198     228.636    -293.288
  H     -186.439     229.772    -292.768
  H     -191.582     227.609    -285.671
  P     -190.643     231.552    -285.115
  C     -193.042     230.643    -284.685
  O     -192.170     231.351    -285.563
  O     -189.917     232.013    -286.463
  O     -190.415     232.506    -283.989
  H     -189.847     232.985    -286.506
  H     -194.019     230.591    -285.118
  H     -193.095     231.154    -283.746
  H     -192.667     229.653    -284.532

 6  7  8  9  10  11  12  13  14  15  25  28  32  33  34  35 0
 6-311+G(2d,p)
 ****
 36  39  40 0
 6-311+G(2d,p)
 ****
 1  2  3  4  5  16  17  18  19  20  21  22  23  24 0
 3-21G
 ****
 26  27  29  30  31  37  38  41  42  43  44  45  46  47 0
 3-21G
 ****
 48 0
 3-21G
 ****


