%nproc=1
%NoSave
%Mem=1900MB
#P OB98/GEN NMR

erre ene a

0 1
  C     -796.819    1002.578    -190.797
  O     -797.891    1003.495    -190.848
  H     -796.657    1002.128    -191.780
  H     -795.906    1003.117    -190.512
  H     -797.020    1001.802    -190.058
  P     -799.318    1002.915    -191.298
  C     -798.726    1003.276    -193.800
  O     -799.153    1002.355    -192.797
  C     -798.200    1002.517    -195.007
  O     -799.159    1001.464    -195.337
  C     -797.996    1003.377    -196.281
  O     -796.635    1003.291    -196.715
  C     -798.884    1002.741    -197.328
  O     -798.276    1002.682    -198.616
  C     -799.142    1001.337    -196.778
  N     -801.481     999.343    -200.831
  C     -800.176     999.430    -200.509
  N     -799.624     999.875    -199.360
  C     -800.578    1000.241    -198.485
  C     -801.946    1000.187    -198.662
  C     -802.407     999.729    -199.912
  N     -803.741     999.703    -200.260
  N     -802.607    1000.663    -197.537
  C     -801.648    1001.026    -196.713
  N     -800.401    1000.809    -197.246
  O     -800.211    1004.229    -191.486
  O     -799.941    1001.955    -190.334
  H     -798.130    1003.606    -198.903
  H     -801.066    1004.112    -191.023
  H     -799.479     999.103    -201.273
  H     -801.788    1001.484    -195.742
  H     -798.345    1000.636    -197.041
  H     -799.814    1003.312    -197.404
  H     -798.266    1004.426    -196.113
  H     -797.264    1002.015    -194.736
  H     -797.924    1003.904    -193.396
  H     -803.957     999.465    -201.212
  H     -804.423    1000.080    -199.616
  H     -799.567    1003.925    -194.070
  P     -795.583    1004.327    -196.054
  C     -796.102    1006.189    -197.808
  O     -796.089    1005.805    -196.426
  O     -794.280    1004.140    -196.947
  O     -795.323    1004.079    -194.604
  H     -793.481    1004.357    -196.428
  H     -796.461    1007.193    -197.896
  H     -796.745    1005.531    -198.355
  H     -795.110    1006.129    -198.204

 6  7  8  9  10  11  12  13  14  15  25  28  32  33  34  35 0
 6-311+G(2d,p)
 ****
 36  39  40 0
 6-311+G(2d,p)
 ****
 1  2  3  4  5  16  17  18  19  20  21  22  23  24 0
 3-21G
 ****
 26  27  29  30  31  37  38  41  42  43  44  45  46  47  48 0
 3-21G
 ****


