%nproc=1
%NoSave
%Mem=1900MB
#P OB98/GEN NMR

erre ene a

0 1
  C      127.318     118.506     109.360
  O      127.741     119.211     110.519
  P      127.187     120.699     110.747
  C      125.359     119.737     112.313
  O      125.651     120.563     111.195
  C      124.289     120.369     113.203
  O      123.825     119.380     114.160
  C      124.766     121.585     114.004
  O      123.650     122.475     114.131
  C      125.088     120.995     115.364
  O      125.093     121.981     116.392
  C      123.980     119.951     115.477
  N      124.740     118.916     120.424
  C      124.404     120.058     119.787
  N      124.219     120.254     118.466
  C      124.419     119.114     117.783
  C      124.799     117.884     118.293
  C      124.959     117.802     119.686
  N      125.291     116.639     120.340
  N      124.933     116.960     117.277
  C      124.640     117.620     116.176
  N      124.299     118.916     116.436
  O      127.092     121.269     109.254
  O      128.035     121.568     111.608
  H      125.768     122.650     116.171
  H      127.760     121.970     109.123
  H      124.257     120.926     120.424
  H      124.661     117.208     115.177
  H      123.020     120.397     115.767
  H      126.077     120.526     115.339
  H      125.619     122.108     113.559
  H      123.432     120.637     112.574
  H      126.272     119.608     112.902
  H      125.252     116.628     121.345
  H      125.269     115.766     119.822
  H      125.028     118.753     111.965
  P      123.915     124.023     113.810
  C      123.287     123.894     111.297
  O      124.301     124.112     112.260
  O      125.293     124.327     114.564
  O      122.824     124.935     114.265
  H      125.337     125.268     114.812
  H      123.489     124.518     110.423
  H      122.294     124.139     111.686
  H      123.302     122.843     110.993
  H      127.769     117.536     109.348
  H      127.614     119.047     108.486
  H      126.253     118.404     109.373

 3  4  5  6  7  8  9  10  11  12  22  25  29  30  31  32 0
 6-311+G(2d,p)
 ****
 33  36  37 0
 6-311+G(2d,p)
 ****
 1  2  13  14  15  16  17  18  19  20  21  23  24  26 0
 3-21G
 ****
 27  28  34  35  38  39  40  41  42  43  44  45  46  47  48 0
 3-21G
 ****


