%nproc=1
%NoSave
%Mem=1900MB
#P OB98/GEN NMR

erre ene a

0 1
  C     -653.462    -335.405     424.663
  O     -652.523    -334.452     424.140
  P     -650.929    -334.629     424.233
  C     -651.032    -333.705     426.649
  O     -650.531    -334.719     425.786
  C     -651.300    -334.259     428.055
  O     -650.143    -335.000     428.519
  C     -651.533    -333.212     429.131
  O     -652.807    -332.601     429.029
  C     -651.339    -334.042     430.399
  O     -652.544    -334.739     430.755
  C     -650.260    -335.056     429.961
  N     -648.973    -334.811     430.599
  C     -648.920    -334.995     431.992
  O     -649.950    -335.258     432.625
  N     -647.710    -334.848     432.623
  C     -646.668    -334.461     431.946
  N     -645.494    -334.352     432.627
  C     -646.716    -334.135     430.511
  C     -647.885    -334.332     429.909
  O     -650.154    -333.606     423.467
  O     -650.641    -336.107     423.667
  H     -649.732    -336.147     423.314
  H     -652.447    -335.029     431.678
  H     -645.832    -333.767     429.997
  H     -648.008    -334.125     428.850
  H     -650.585    -336.077     430.194
  H     -651.052    -333.427     431.255
  H     -650.747    -332.448     429.076
  H     -652.157    -334.947     427.986
  H     -645.491    -334.597     433.609
  H     -651.977    -333.336     426.223
  H     -644.624    -334.088     432.184
  H     -650.315    -332.871     426.684
  P     -652.882    -331.218     428.211
  C     -652.523    -329.781     430.356
  O     -652.066    -330.124     429.058
  O     -654.416    -330.767     428.392
  O     -652.510    -331.319     426.776
  H     -654.734    -330.365     427.556
  H     -651.666    -329.443     430.948
  H     -652.989    -330.639     430.851
  H     -653.249    -328.961     430.286
  H     -654.459    -335.062     424.478
  H     -653.312    -335.512     425.717
  H     -653.315    -336.350     424.184

 3  4  5  6  7  8  9  10  11  12  13  24  27  28  29  30  32 0
 6-311+G(2d,p)
 ****
 34  35 0
 6-311+G(2d,p)
 ****
 1  2  14  15  16  17  18  19  20  21  22  23  25  26 0
 3-21G
 ****
 31  33  36  37  38  39  40  41  42  43  44  45  46 0
 3-21G
 ****


