%nproc=1
%NoSave
%Mem=1900MB
#P OB98/GEN NMR

erre ene a

0 1
  C     -100.257    -245.835     -15.441
  O      -98.864    -246.067     -15.313
  P      -97.882    -244.850     -14.965
  C      -96.807    -244.698     -17.331
  O      -97.591    -244.076     -16.335
  C      -96.883    -243.935     -18.657
  O      -95.932    -244.531     -19.576
  C      -98.240    -244.009     -19.364
  O      -98.310    -242.949     -20.326
  C      -98.144    -245.336     -20.079
  O      -99.083    -245.436     -21.154
  C      -96.653    -245.403     -20.484
  N      -96.120    -246.779     -20.411
  C      -96.706    -247.723     -21.253
  O      -97.569    -247.440     -22.081
  N      -96.322    -249.022     -21.034
  C      -95.476    -249.450     -20.051
  O      -95.381    -250.607     -19.683
  C      -94.719    -248.383     -19.365
  C      -95.088    -247.114     -19.550
  O      -96.499    -245.595     -14.642
  O      -98.325    -243.987     -13.825
  H      -98.992    -246.353     -21.519
  H      -96.394    -245.717     -13.684
  H      -96.855    -249.725     -21.551
  H      -93.931    -248.682     -18.689
  H      -94.579    -246.313     -19.016
  H      -96.502    -245.035     -21.508
  H      -98.380    -246.144     -19.371
  H      -99.100    -243.962     -18.686
  H      -96.590    -242.894     -18.497
  H      -97.145    -245.735     -17.464
  H      -95.759    -244.751     -17.013
  P      -99.755    -242.346     -20.675
  C      -99.919    -243.835     -22.771
  O     -100.514    -243.475     -21.535
  O      -99.771    -240.974     -21.265
  O     -100.526    -242.405     -19.266
  H     -101.297    -241.801     -19.289
  H     -100.169    -244.875     -22.991
  H      -98.826    -243.731     -22.740
  H     -100.324    -243.196     -23.564
  H     -100.752    -246.755     -15.674
  H     -100.430    -245.128     -16.226
  H     -100.640    -245.447     -14.520

 3  4  5  6  7  8  9  10  11  12  13  23  28  29  30  31  32 0
 6-311+G(2d,p)
 ****
 33  34 0
 6-311+G(2d,p)
 ****
 1  2  14  15  16  17  18  19  20  21  22  24  25  26  27 0
 3-21G
 ****
 35  36  37  38  39  40  41  42  43  44  45 0
 3-21G
 ****


