%nproc=1
%NoSave
%Mem=1900MB
#P OB98/GEN NMR

erre ene a

0 1
  C     -144.782     242.312     466.646
  O     -143.699     242.783     467.426
  H     -145.029     241.297     466.963
  H     -144.509     242.298     465.589
  H     -145.660     242.955     466.795
  P     -143.192     244.276     467.131
  C     -141.482     243.397     465.372
  O     -142.584     244.260     465.643
  C     -141.728     242.654     464.060
  O     -142.830     241.727     464.225
  C     -142.120     243.553     462.897
  O     -141.010     244.217     462.329
  C     -142.774     242.551     461.960
  O     -141.797     241.859     461.168
  C     -143.457     241.581     462.931
  N     -148.086     239.960     461.497
  C     -146.851     239.445     461.297
  N     -145.664     239.934     461.727
  C     -145.846     241.058     462.451
  C     -147.043     241.691     462.734
  C     -148.211     241.091     462.227
  N     -149.465     241.623     462.403
  N     -146.826     242.838     463.472
  C     -145.519     242.897     463.631
  N     -144.885     241.836     463.034
  O     -141.902     244.408     468.069
  O     -144.193     245.349     467.400
  H     -141.404     242.525     460.572
  H     -142.141     244.899     468.878
  H     -146.803     238.532     460.714
  H     -144.982     243.675     464.163
  H     -143.337     240.532     462.624
  H     -143.463     243.053     461.277
  H     -142.877     244.280     463.223
  H     -140.825     242.072     463.816
  H     -141.378     242.677     466.190
  H     -140.569     243.999     465.307
  H     -150.249     241.181     461.951
  H     -149.558     242.530     462.846
  P     -140.783     245.757     462.719
  C     -140.988     246.430     460.201
  O     -141.423     246.645     461.540
  O     -139.203     245.972     462.535
  O     -141.239     246.131     464.090
  H     -138.874     246.595     463.215
  H     -141.508     247.097     459.546
  H     -141.193     245.419     459.917
  H     -139.936     246.613     460.134

 6  7  8  9  10  11  12  13  14  15  25  28  32  33  34  35 0
 6-311+G(2d,p)
 ****
 36  37  40 0
 6-311+G(2d,p)
 ****
 1  2  3  4  5  16  17  18  19  20  21  22  23  24 0
 3-21G
 ****
 26  27  29  30  31  38  39 41  42  43  44  45  46  47  48 0
 3-21G
 ****


