%nproc=1
%NoSave
%Mem=1900MB
#P OB98/GEN NMR

erre ene a

0 1
  C       35.989      33.513     -65.162
  O       35.075      32.820     -64.337
  H       35.564      33.653     -66.159
  H       36.188      34.494     -64.722
  H       36.930      32.961     -65.232
  P       34.644      31.355     -64.830
  C       32.251      31.911     -65.644
  O       33.577      31.562     -66.015
  C       31.349      31.918     -66.874
  O       29.992      32.198     -66.439
  C       31.737      32.966     -67.931
  O       31.820      32.364     -69.229
  C       30.579      33.945     -67.925
  O       30.304      34.489     -69.211
  C       29.427      33.098     -67.401
  N       25.605      36.316     -68.410
  C       26.215      35.387     -69.177
  N       27.160      34.494     -68.820
  C       27.445      34.602     -67.511
  C       26.890      35.484     -66.599
  C       25.939      36.388     -67.102
  N       25.358      37.373     -66.333
  N       27.439      35.302     -65.344
  C       28.342      34.357     -65.506
  N       28.393      33.914     -66.801
  O       33.757      30.806     -63.614
  O       35.783      30.442     -65.135
  H       31.126      34.903     -69.533
  H       34.182      30.005     -63.252
  H       25.907      35.360     -70.219
  H       29.013      33.991     -64.739
  H       28.970      32.495     -68.196
  H       30.812      34.770     -67.242
  H       32.683      33.464     -67.701
  H       31.345      30.914     -67.314
  H       32.247      32.909     -65.192
  H       24.777      38.050     -66.799
  H       25.687      37.501     -65.386
  H       31.886      31.189     -64.905
  P       33.302      32.065     -69.778
  C       33.988      34.496     -70.387
  O       34.197      33.378     -69.533
  O       33.100      32.023     -71.365
  O       33.887      30.791     -69.269
  H       33.418      31.170     -71.718
  H       34.650      35.288     -70.106
  H       32.975      34.829     -70.297
  H       34.182      34.212     -71.400

 6  7  8  9  10  11  12  13  14  15  25  28  32  33  34  35 0
 6-311+G(2d,p)
 ****
 36  39  40 0
 6-311+G(2d,p)
 ****
 1  2  3  4  5  16  17  18  19  20  21  22  23  24 0
 3-21G
 ****
 26  27  29  30  31  37  38  41  42  43  44  45  46  47  48 0
 3-21G
 ****


