%nproc=1
%NoSave
%Mem=1900MB
#P OB98/GEN NMR

erre ene a

0 1
  C       57.529    -515.280    -467.722
  O       56.736    -514.126    -467.902
  H       58.159    -515.146    -466.833
  H       58.175    -515.439    -468.586
  H       56.894    -516.158    -467.572
  P       55.820    -514.090    -469.223
  C       55.061    -511.662    -468.627
  O       55.710    -512.520    -469.557
  C       55.867    -510.376    -468.472
  O       57.121    -510.630    -467.815
  C       56.223    -509.697    -469.788
  O       55.140    -508.967    -470.348
  C       57.355    -508.784    -469.340
  O       56.796    -507.648    -468.643
  C       58.111    -509.715    -468.368
  N       59.195    -510.452    -469.014
  C       60.414    -509.773    -469.171
  O       60.539    -508.613    -468.783
  N       61.451    -510.425    -469.792
  C       61.301    -511.647    -470.211
  N       62.362    -512.233    -470.843
  C       60.042    -512.394    -470.048
  C       59.043    -511.759    -469.451
  O       54.351    -514.432    -468.672
  O       56.269    -514.951    -470.358
  H       57.546    -507.111    -468.329
  H       53.686    -514.306    -469.394
  H       59.967    -513.418    -470.430
  H       58.095    -512.241    -469.299
  H       58.531    -509.148    -467.529
  H       57.946    -508.393    -470.163
  H       56.624    -510.417    -470.517
  H       55.296    -509.690    -467.819
  H       63.188    -511.665    -470.984
  H       54.993    -512.184    -467.666
  H       62.287    -513.109    -471.349
  H       54.053    -511.422    -468.972
  P       55.007    -508.946    -471.957
  C       52.468    -508.600    -471.533
  O       53.608    -508.248    -472.301
  O       54.746    -510.491    -472.325
  O       56.194    -508.392    -472.680
  H       55.214    -510.747    -473.130
  H       51.619    -508.052    -471.884
  H       52.645    -508.365    -470.504
  H       52.281    -509.649    -471.632

 6  7  8  9  10  11  12  13  14  15  16  26  30  31  32  33  35 0
 6-311+G(2d,p)
 ****
 37  38 0
 6-311+G(2d,p)
 ****
 1  2  3  4  5  17  18  19  20  21  22  23  24  25 0
 3-21G
 ****
 27  28  29  34  36  39  40  41  42  43  44  45  46 0
 3-21G
 ****


