%nproc=1
%NoSave
%Mem=1900MB
#P OB98/GEN NMR

erre ene a

0 1
  C     -455.448     222.894    -712.528
  O     -455.402     224.232    -712.977
  H     -456.087     222.851    -711.642
  H     -454.453     222.542    -712.261
  H     -455.879     222.245    -713.297
  P     -454.524     224.569    -714.278
  C     -453.905     226.681    -712.905
  O     -453.442     225.635    -713.757
  C     -452.723     227.502    -712.384
  O     -452.037     226.808    -711.325
  C     -451.638     227.793    -713.423
  O     -452.021     228.777    -714.377
  C     -450.534     228.276    -712.507
  O     -450.812     229.621    -712.060
  C     -450.649     227.261    -711.344
  N     -449.734     226.127    -711.489
  C     -448.372     226.413    -711.390
  O     -447.976     227.559    -711.203
  N     -447.469     225.375    -711.534
  C     -447.894     224.180    -711.782
  N     -446.965     223.200    -711.929
  C     -449.335     223.841    -711.919
  C     -450.182     224.848    -711.755
  O     -455.285     224.974    -715.504
  O     -453.612     223.271    -714.494
  H     -450.809     230.184    -712.854
  H     -453.048     223.424    -715.299
  H     -449.635     222.828    -712.153
  H     -451.252     224.679    -711.839
  H     -450.462     227.753    -710.372
  H     -449.556     228.291    -712.986
  H     -451.313     226.872    -713.916
  H     -453.134     228.427    -711.955
  H     -445.991     223.456    -711.836
  H     -454.464     226.224    -712.084
  H     -447.203     222.251    -712.210
  H     -454.574     227.348    -713.454
  P     -451.116     228.875    -715.708
  C     -450.826     231.407    -715.113
  O     -450.220     230.194    -715.534
  O     -452.177     229.254    -716.828
  O     -450.325     227.638    -716.030
  H     -452.435     228.456    -717.338
  H     -450.083     232.175    -715.052
  H     -451.274     231.267    -714.151
  H     -451.578     231.694    -715.818

 6  7  8  9  10  11  12  13  14  15  16  26  30  31  32  33  35 0
 6-311+G(2d,p)
 ****
 37  38 0
 6-311+G(2d,p)
 ****
 1  2  3  4  5  17  18  19  20  21  22  23  24  25 0
 3-21G
 ****
 27  28  29  34  36  39  40  41  42  43  44  45  46 0
 3-21G
 ****


