%nproc=1
%NoSave
%Mem=1900MB
#P OB98/GEN NMR

erre ene a

0 1
  C     -190.973      98.530    -262.089
  O     -191.731      99.120    -263.126
  H     -190.743      99.302    -261.342
  H     -190.034      98.136    -262.481
  H     -191.537      97.730    -261.601
  P     -192.318      98.179    -264.286
  C     -194.521      98.096    -262.950
  O     -193.530      97.351    -263.643
  C     -195.914      97.625    -263.369
  O     -196.115      96.245    -262.982
  C     -197.051      98.407    -262.722
  O     -197.199      99.678    -263.328
  C     -198.214      97.445    -262.938
  O     -198.715      97.535    -264.279
  C     -197.527      96.075    -262.706
  N     -197.738      95.557    -261.345
  C     -198.792      94.664    -261.195
  O     -199.526      94.310    -262.122
  N     -199.012      94.214    -259.918
  C     -198.349      94.635    -258.796
  O     -198.721      94.381    -257.653
  C     -197.199      95.526    -259.032
  C     -196.963      95.953    -260.279
  O     -191.313      97.360    -265.029
  O     -193.070      99.206    -265.261
  H     -192.504      99.390    -266.036
  H     -198.074      97.063    -264.846
  H     -199.804      93.601    -259.786
  H     -196.609      95.832    -258.177
  H     -196.133      96.632    -260.471
  H     -197.904      95.333    -263.418
  H     -199.052      97.649    -262.269
  H     -196.871      98.509    -261.644
  H     -195.982      97.680    -264.465
  H     -194.401      99.155    -263.212
  H     -194.379      97.974    -261.870
  P     -197.853     100.905    -262.536
  C     -195.532     101.515    -261.625
  O     -196.895     101.261    -261.300
  O     -199.293     100.733    -262.178
  O     -197.656     102.158    -263.521
  H     -198.521     102.595    -263.659
  H     -194.988     101.740    -260.731
  H     -195.474     102.346    -262.297
  H     -195.109     100.650    -262.091

 6  7  8  9  10  11  12  13  14  15  16  27  31  32  33  34  35 0
 6-311+G(2d,p)
 ****
 36  37 0
 6-311+G(2d,p)
 ****
 1  2  3  4  5  17  18  19  20  21  22  23  24  25 0
 3-21G
 ****
 26  28  29  30  38  39  40  41  42  43  44  45 0
 3-21G
 ****


