%nproc=1
%NoSave
%Mem=1900MB
#P OB98/GEN NMR

erre ene a

0 1
  C       31.323     -49.787      85.639
  O       30.165     -50.367      86.210
  H       31.791     -49.137      86.383
  H       31.051     -49.187      84.767
  H       32.032     -50.568      85.353
  P       29.341     -51.382      85.279
  C       28.582     -51.163      82.813
  O       28.887     -50.489      84.027
  C       29.041     -50.340      81.612
  O       30.399     -49.897      81.792
  C       29.022     -51.093      80.289
  O       27.713     -51.126      79.745
  C       29.956     -50.229      79.456
  O       29.249     -49.068      78.977
  C       31.022     -49.804      80.483
  N       35.925     -50.038      78.975
  C       34.934     -49.174      78.671
  N       33.645     -49.196      79.075
  C       33.414     -50.248      79.876
  C       34.328     -51.214      80.274
  C       35.642     -51.075      79.795
  N       36.654     -51.955      80.117
  N       33.729     -52.145      81.098
  C       32.490     -51.716      81.239
  N       32.241     -50.595      80.490
  O       28.270     -52.162      85.961
  O       30.530     -52.260      84.658
  H       28.570     -49.378      78.348
  H       31.301     -51.700      84.461
  H       35.211     -48.350      78.018
  H       31.745     -52.171      81.879
  H       31.332     -48.761      80.340
  H       30.338     -50.754      78.579
  H       29.455     -52.094      80.392
  H       28.412     -49.441      81.562
  H       27.506     -51.356      82.744
  H       37.516     -51.881      79.598
  H       36.411     -52.793      80.625
  H       29.104     -52.125      82.833
  P       27.123     -52.478      79.116
  C       28.059     -54.100      77.353
  O       27.930     -52.740      77.754
  O       25.641     -52.513      78.974
  O       27.655     -53.635      80.082
  H       26.971     -54.323      80.198
  H       28.612     -54.151      76.438
  H       27.087     -54.522      77.207
  H       28.575     -54.648      78.113

 6  7  8  9  10  11  12  13  14  15  25  28  32  33  34  35 0
 6-311+G(2d,p)
 ****
 36  39  40 0
 6-311+G(2d,p)
 ****
 1  2  3  4  5  16  17  18  19  20  21  22  23  24 0
 3-21G
 ****
 26  27  29  30  31  37  38  41  42  43  44  45  46  47 0
 3-21G
 ****
 48 0
 3-21G
 ****


