%nproc=1
%NoSave
%Mem=1900MB
#P OB98/GEN NMR

erre ene a

0 1
  C     -153.504     362.582     545.214
  O     -154.647     362.012     545.860
  P     -155.910     362.923     546.236
  C     -155.811     362.849     548.791
  O     -155.632     363.665     547.633
  C     -155.383     363.540     550.097
  O     -155.641     362.687     551.239
  C     -153.904     363.945     550.158
  O     -153.857     365.150     550.934
  C     -153.281     362.786     550.915
  O     -152.018     363.114     551.471
  C     -154.397     362.476     551.934
  N     -154.298     361.123     552.473
  C     -153.295     360.893     553.420
  O     -152.516     361.789     553.731
  N     -153.183     359.635     553.966
  C     -153.934     358.669     553.524
  N     -153.751     357.449     554.086
  C     -154.938     358.846     552.458
  C     -155.070     360.085     551.998
  O     -157.235     362.227     546.154
  O     -155.850     364.127     545.166
  H     -151.637     362.300     551.864
  H     -156.753     364.444     544.986
  H     -155.517     358.011     552.105
  H     -155.791     360.330     551.213
  H     -154.354     363.184     552.770
  H     -153.146     361.928     550.244
  H     -153.443     364.084     549.172
  H     -156.014     364.432     550.215
  H     -153.035     357.357     554.797
  H     -155.225     361.930     548.662
  H     -154.191     356.612     553.741
  H     -156.862     362.548     548.858
  P     -153.090     366.454     550.422
  C     -150.735     365.777     551.164
  O     -151.592     366.004     550.066
  O     -153.184     367.632     551.331
  O     -153.732     366.782     548.985
  H     -153.527     367.702     548.742
  H     -149.831     365.285     550.816
  H     -151.215     365.140     551.921
  H     -150.457     366.742     551.616
  H     -152.772     361.820     545.047
  H     -153.088     363.347     545.836
  H     -153.798     363.005     544.276

 3  4  5  6  7  8  9  10  11  12  13  23  27  28  29  30  32 0
 6-311+G(2d,p)
 ****
 34  35 0
 6-311+G(2d,p)
 ****
 1  2  14  15  16  17  18  19  20  21  22  24  25  26 0
 3-21G
 ****
 31  33  36  37  38  39  40  41  42  43  44  45  46 0
 3-21G
 ****


