%nproc=1
%NoSave
%Mem=1900MB
#P OB98/GEN NMR

erre ene a

0 1
  C      334.492     158.924     149.363
  O      333.904     159.439     150.542
  H      333.712     158.452     148.760
  H      335.248     158.175     149.612
  H      334.947     159.732     148.786
  P      334.911     160.084     151.615
  C      334.612     158.156     153.348
  O      334.374     159.517     153.020
  C      333.556     157.675     154.338
  O      333.705     158.348     155.608
  C      332.121     157.946     153.900
  O      331.653     157.017     152.937
  C      331.399     157.801     155.226
  O      331.279     156.405     155.560
  C      332.380     158.516     156.182
  N      332.074     159.936     156.361
  C      331.329     160.279     157.495
  O      330.950     159.413     158.282
  N      330.998     161.599     157.695
  C      331.387     162.499     156.847
  N      331.019     163.786     157.088
  C      332.188     162.183     155.650
  C      332.491     160.900     155.470
  O      334.469     161.622     151.670
  O      336.365     159.870     151.361
  H      332.184     156.058     155.657
  H      334.951     162.083     152.399
  H      332.478     162.967     154.965
  H      333.075     160.593     154.610
  H      332.390     158.035     157.167
  H      330.390     158.217     155.213
  H      331.995     158.975     153.545
  H      333.722     156.603     154.515
  H      330.418     163.963     157.881
  H      335.610     158.077     153.791
  H      331.118     164.519     156.396
  H      334.571     157.540     152.446
  P      330.895     157.600     151.647
  C      328.603     156.442     152.028
  O      329.777     156.526     151.235
  O      331.989     157.454     150.491
  O      330.409     159.010     151.784
  H      331.967     158.219     149.885
  H      327.958     155.686     151.631
  H      328.097     157.385     152.017
  H      328.869     156.191     153.034

 6  7  8  9  10  11  12  13  14  15  16  26  30  31  32  33  35 0
 6-311+G(2d,p)
 ****
 37  38 0
 6-311+G(2d,p)
 ****
 1  2  3  4  5  17  18  19  20  21  22  23  24  25 0
 3-21G
 ****
 27  28  29  34  36  39  40  41  42  43  44  45  46 0
 3-21G
 ****


