%nproc=1
%NoSave
%Mem=1900MB
#P OB98/GEN NMR

erre ene a

0 1
  C      473.551    -728.928    1146.253
  O      473.736    -728.314    1147.547
  P      473.795    -729.278    1148.846
  C      476.352    -729.124    1149.378
  O      475.257    -729.938    1148.924
  C      477.060    -729.801    1150.545
  O      477.631    -731.066    1150.164
  C      478.221    -729.002    1151.090
  O      477.786    -727.993    1152.002
  C      479.005    -730.090    1151.843
  O      478.391    -730.322    1153.133
  C      478.843    -731.294    1150.933
  N      483.820    -732.418    1150.520
  C      483.017    -732.249    1151.607
  N      481.697    -731.950    1151.624
  C      481.245    -731.808    1150.374
  C      481.937    -731.930    1149.184
  C      483.301    -732.261    1149.288
  N      484.120    -732.419    1148.183
  N      481.117    -731.699    1148.100
  C      479.917    -731.445    1148.628
  N      479.968    -731.483    1149.999
  O      472.849    -730.491    1148.429
  O      473.319    -728.600    1150.091
  H      477.435    -730.444    1152.966
  H      472.384    -730.818    1149.204
  H      483.490    -732.422    1152.585
  H      479.020    -731.246    1148.069
  H      478.721    -732.231    1151.494
  H      480.051    -729.786    1152.043
  H      478.843    -728.589    1150.276
  H      476.337    -729.976    1151.342
  H      475.967    -728.145    1149.672
  H      485.075    -732.686    1148.338
  H      483.726    -732.335    1147.249
  H      477.026    -728.956    1148.527
  P      478.168    -726.466    1151.656
  C      476.122    -725.749    1150.160
  O      477.504    -726.178    1150.208
  O      479.736    -726.550    1151.321
  O      477.864    -725.480    1152.727
  H      480.150    -725.710    1151.558
  H      475.943    -725.336    1149.184
  H      475.927    -724.996    1150.918
  H      475.476    -726.607    1150.287
  H      473.533    -728.170    1145.498
  H      472.626    -729.465    1146.242
  H      474.358    -729.604    1146.060

 3  4  5  6  7  8  9  10  11  12  22  25  29  30  31  32 0
 6-311+G(2d,p)
 ****
 33  36  37 0
 6-311+G(2d,p)
 ****
 1  2  13  14  15  16  17  18  19  20  21  23  24  26 0
 3-21G
 ****
 27  28  34  35  38  39  40  41  42  43  44  45  46  47  48 0
 3-21G
 ****


