%nproc=1
%NoSave
%Mem=1900MB
#P OB98/GEN NMR

erre ene a

0 1
  C     -216.235    -823.760     381.321
  O     -217.514    -823.317     380.893
  H     -216.268    -824.837     381.443
  H     -215.990    -823.296     382.283
  H     -215.473    -823.505     380.575
  P     -217.640    -821.772     380.471
  C     -218.080    -822.313     377.941
  O     -217.239    -821.724     378.917
  C     -217.365    -822.364     376.586
  O     -217.398    -821.038     375.997
  C     -215.906    -822.808     376.668
  O     -215.603    -823.602     375.515
  C     -215.127    -821.493     376.610
  O     -213.806    -821.693     376.130
  C     -216.037    -820.657     375.697
  N     -215.831    -819.212     375.886
  C     -214.833    -818.612     375.143
  O     -214.134    -819.297     374.371
  N     -214.591    -817.271     375.298
  C     -215.246    -816.613     376.194
  N     -214.946    -815.294     376.323
  C     -216.293    -817.207     377.052
  C     -216.545    -818.498     376.833
  O     -216.378    -821.123     381.211
  O     -218.953    -821.157     380.814
  H     -213.360    -820.822     376.104
  H     -215.578    -821.674     381.163
  H     -216.804    -816.619     377.787
  H     -217.299    -819.020     377.415
  H     -215.854    -820.883     374.637
  H     -215.069    -821.047     377.599
  H     -215.672    -823.369     377.579
  H     -217.946    -823.014     375.920
  H     -214.219    -814.910     375.731
  H     -219.010    -821.739     377.838
  H     -215.367    -814.682     377.017
  H     -218.329    -823.322     378.274
  P     -216.236    -825.077     375.414
  C     -217.334    -824.687     373.114
  O     -217.534    -825.025     374.481
  O     -216.399    -825.810     376.690
  O     -215.179    -825.838     374.457
  H     -215.070    -826.751     374.801
  H     -218.275    -824.688     372.605
  H     -216.683    -825.405     372.661
  H     -216.893    -823.714     373.048

 6  7  8  9  10  11  12  13  14  15  16  26  30  31  32  33  35 0
 6-311+G(2d,p)
 ****
 37  38 0
 6-311+G(2d,p)
 ****
 1  2  3  4  5  17  18  19  20  21  22  23  24  25 0
 3-21G
 ****
 27  28  29  34  36  39  40  41  42  43  44  45  46 0
 3-21G
 ****


