%nproc=1
%NoSave
%Mem=1900MB
#P OB98/GEN NMR

erre ene a

0 1
  C      705.834    -463.434      76.273
  O      704.576    -463.881      75.798
  H      706.479    -463.233      75.411
  H      706.299    -464.208      76.892
  H      705.718    -462.513      76.850
  P      703.471    -464.215      76.915
  C      701.870    -463.500      74.987
  O      702.066    -464.307      76.136
  C      700.812    -464.126      74.071
  O      701.288    -465.445      73.640
  C      699.452    -464.348      74.749
  O      698.429    -464.278      73.738
  C      699.578    -465.782      75.243
  O      698.321    -466.308      75.617
  C      700.276    -466.399      74.040
  N      699.487    -471.448      74.350
  C      698.674    -470.434      73.986
  N      698.963    -469.114      73.915
  C      700.241    -468.889      74.251
  C      701.192    -469.818      74.640
  C      700.772    -471.163      74.687
  N      701.586    -472.189      75.072
  N      702.404    -469.199      74.914
  C      702.187    -467.924      74.696
  N      700.895    -467.683      74.299
  O      703.361    -462.849      77.746
  O      703.777    -465.380      77.792
  H      698.417    -467.227      75.937
  H      703.938    -462.893      78.533
  H      697.658    -470.720      73.713
  H      702.913    -467.122      74.804
  H      699.603    -466.529      73.188
  H      700.215    -465.834      76.131
  H      699.233    -463.621      75.535
  H      700.714    -463.522      73.160
  H      702.815    -463.402      74.454
  H      701.531    -462.498      75.301
  H      701.203    -473.127      75.094
  H      702.547    -471.995      75.343
  P      698.002    -462.848      73.150
  C      697.495    -464.173      70.950
  O      697.174    -463.082      71.790
  O      699.393    -462.285      72.596
  O      697.398    -461.896      74.134
  H      699.391    -461.306      72.624
  H      696.846    -464.171      70.099
  H      697.371    -465.088      71.491
  H      698.511    -464.086      70.625

 6  7  8  9  10  11  12  13  14  15  25  28  32  33  34  35 0
 6-311+G(2d,p)
 ****
 36  37  40 0
 6-311+G(2d,p)
 ****
 1  2  3  4  5  16  17  18  19  20  21  22  23  24 0
 3-21G
 ****
 26  27  29  30  31  38  39 41  42  43  44  45  46  47  48 0
 3-21G
 ****


