%nproc=1
%NoSave
%Mem=1900MB
#P OB98/GEN NMR

erre ene a

0 1
  C     -188.914    -180.388     369.533
  O     -189.157    -179.148     370.208
  P     -188.003    -178.623     371.196
  C     -189.467    -179.132     373.280
  O     -188.216    -179.321     372.634
  C     -189.287    -178.643     374.729
  O     -188.619    -179.655     375.530
  C     -188.453    -177.360     374.838
  O     -188.962    -176.609     375.952
  C     -187.070    -177.882     375.202
  O     -186.262    -176.862     375.786
  C     -187.448    -179.046     376.118
  N     -183.906    -180.903     379.300
  C     -184.835    -179.936     379.446
  N     -185.735    -179.481     378.540
  C     -185.621    -180.171     377.389
  C     -184.720    -181.179     377.088
  C     -183.822    -181.546     378.106
  N     -182.852    -182.510     377.944
  N     -184.890    -181.612     375.782
  C     -185.880    -180.872     375.307
  N     -186.375    -180.014     376.249
  O     -188.414    -177.096     371.460
  O     -186.623    -178.729     370.631
  H     -185.338    -177.189     375.823
  H     -187.795    -176.502     370.992
  H     -184.864    -179.459     380.424
  H     -186.263    -180.914     374.301
  H     -187.713    -178.710     377.134
  H     -186.564    -178.247     374.296
  H     -188.448    -176.738     373.940
  H     -190.279    -178.475     375.161
  H     -190.029    -180.066     373.285
  H     -182.229    -182.693     378.714
  H     -182.749    -182.960     377.049
  H     -190.070    -178.426     372.694
  P     -189.535    -175.147     375.621
  C     -187.800    -173.891     377.090
  O     -188.301    -174.135     375.789
  O     -190.476    -174.816     376.879
  O     -190.284    -175.056     374.325
  H     -191.165    -174.169     376.625
  H     -186.702    -173.843     377.040
  H     -188.085    -174.670     377.801
  H     -188.179    -172.926     377.446
  H     -189.751    -180.625     368.910
  H     -188.775    -181.166     370.255
  H     -188.035    -180.299     368.930

 3  4  5  6  7  8  9  10  11  12  22  25  29  30  31  32 0
 6-311+G(2d,p)
 ****
 33  36  37 0
 6-311+G(2d,p)
 ****
 1  2  13  14  15  16  17  18  19  20  21  23  24  26 0
 3-21G
 ****
 27  28  34  35  38  39  40  41  42  43  44  45  46  47  48 0
 3-21G
 ****


