%nproc=1
%NoSave
%Mem=1900MB
#P OB98/GEN NMR

erre ene a

0 1
  C      800.073     515.815    -803.708
  O      799.731     516.858    -802.825
  H      800.885     515.231    -803.260
  H      800.415     516.227    -804.659
  H      799.215     515.160    -803.876
  P      798.452     517.754    -803.198
  C      797.161     515.650    -802.383
  O      797.194     516.754    -803.278
  C      795.771     515.011    -802.382
  O      794.857     515.864    -801.650
  C      795.200     514.797    -803.781
  O      794.482     513.550    -803.807
  C      794.212     515.940    -803.945
  O      793.176     515.650    -804.890
  C      793.730     516.147    -802.500
  N      793.216     517.499    -802.295
  C      791.950     517.770    -802.827
  O      791.336     516.903    -803.442
  N      791.441     519.038    -802.700
  C      792.173     519.977    -802.179
  N      791.623     521.223    -802.112
  C      793.538     519.741    -801.663
  C      793.991     518.498    -801.753
  O      798.703     518.139    -804.728
  O      798.231     518.948    -802.328
  H      792.540     515.027    -804.456
  H      798.332     519.023    -804.936
  H      794.114     520.561    -801.258
  H      794.987     518.230    -801.409
  H      792.936     515.421    -802.254
  H      794.743     516.835    -804.298
  H      795.956     514.786    -804.568
  H      795.831     514.060    -801.837
  H      790.689     521.340    -802.485
  H      797.382     516.007    -801.371
  H      792.113     522.031    -801.765
  H      797.929     514.917    -802.676
  P      794.745     512.597    -805.056
  C      795.210     510.327    -803.857
  O      795.753     511.419    -804.593
  O      795.649     513.488    -806.030
  O      793.505     512.129    -805.736
  H      795.125     513.769    -806.806
  H      795.989     509.632    -803.622
  H      794.461     509.838    -804.445
  H      794.771     510.690    -802.951

 6  7  8  9  10  11  12  13  14  15  16  26  30  31  32  33  35 0
 6-311+G(2d,p)
 ****
 37  38 0
 6-311+G(2d,p)
 ****
 1  2  3  4  5  17  18  19  20  21  22  23  24  25 0
 3-21G
 ****
 27  28  29  34  36  39  40  41  42  43  44  45  46 0
 3-21G
 ****


