%nproc=1
%NoSave
%Mem=1900MB
#P OB98/GEN NMR

erre ene a

0 1
  C      226.141     782.182     991.706
  O      225.804     783.529     991.347
  P      224.330     784.031     991.705
  C      223.340     786.093     992.989
  O      224.482     785.450     992.437
  C      223.760     787.132     994.039
  O      224.683     786.562     994.985
  C      224.508     788.340     993.423
  O      223.600     789.249     992.847
  C      225.220     788.893     994.665
  O      224.370     789.732     995.432
  C      225.568     787.603     995.431
  N      226.971     787.228     995.300
  C      227.792     787.501     996.375
  O      227.379     788.074     997.393
  N      229.126     787.177     996.240
  C      229.702     786.611     995.153
  O      230.900     786.393     995.065
  C      228.793     786.367     994.008
  C      227.487     786.688     994.131
  O      223.848     783.050     992.895
  O      223.364     784.039     990.573
  H      223.679     789.164     995.789
  H      222.877     782.885     992.814
  H      229.711     787.337     997.042
  H      229.209     785.938     993.112
  H      226.809     786.494     993.299
  H      225.356     787.724     996.478
  H      226.094     789.482     994.378
  H      225.236     787.988     992.693
  H      222.861     787.447     994.579
  H      222.696     785.334     993.466
  H      222.785     786.575     992.180
  P      224.238     790.528     992.102
  C      223.214     792.294     990.456
  O      223.098     791.015     991.062
  O      225.356     789.806     991.187
  O      224.769     791.554     993.036
  H      225.069     788.927     990.880
  H      224.267     792.540     990.256
  H      222.771     793.055     991.124
  H      222.653     792.281     989.505
  H      227.149     781.976     991.412
  H      225.479     781.504     991.209
  H      226.046     782.061     992.765

 3  4  5  6  7  8  9  10  11  12  13  23  28  29  30  31  32 0
 6-311+G(2d,p)
 ****
 33  34 0
 6-311+G(2d,p)
 ****
 1  2  14  15  16  17  18  19  20  21  22  24  25  26 0
 3-21G
 ****
 27  35  36  37  38  39  40  41  42  43  44  45 0
 3-21G
 ****


