%nproc=1
%NoSave
%Mem=1900MB
#P OB98/GEN NMR

erre ene a

0 1
  C     -463.016    -540.040     268.825
  O     -462.229    -541.139     268.402
  P     -460.635    -541.094     268.594
  C     -460.096    -541.175     266.049
  O     -459.997    -541.808     267.304
  C     -460.594    -542.153     264.971
  O     -459.567    -543.157     264.775
  C     -461.860    -542.919     265.338
  O     -462.438    -543.447     264.142
  C     -461.310    -544.050     266.182
  O     -462.218    -545.143     266.273
  C     -459.961    -544.357     265.485
  N     -458.924    -544.735     266.463
  C     -459.109    -545.935     267.144
  O     -460.045    -546.701     266.910
  N     -458.231    -546.183     268.167
  C     -457.245    -545.337     268.585
  O     -456.687    -545.423     269.675
  C     -456.948    -544.214     267.682
  C     -457.802    -543.950     266.689
  O     -460.398    -542.156     269.770
  O     -460.076    -539.760     268.922
  H     -461.716    -545.890     266.692
  H     -460.331    -541.694     270.628
  H     -458.454    -546.984     268.754
  H     -456.081    -543.603     267.895
  H     -457.637    -543.094     266.042
  H     -460.060    -545.173     264.764
  H     -461.135    -543.684     267.200
  H     -462.603    -542.323     265.881
  H     -460.727    -541.616     264.027
  H     -459.119    -540.763     265.773
  H     -460.789    -540.326     266.104
  P     -463.780    -542.772     263.578
  C     -465.272    -544.806     264.048
  O     -464.708    -543.968     263.061
  O     -463.595    -541.636     262.632
  O     -464.529    -542.306     264.923
  H     -465.203    -541.632     264.710
  H     -466.223    -545.200     263.676
  H     -465.465    -544.260     264.980
  H     -464.599    -545.645     264.243
  H     -464.047    -540.241     268.622
  H     -462.713    -539.160     268.297
  H     -462.882    -539.889     269.876

 3  4  5  6  7  8  9  10  11  12  13  23  28  29  30  31  32 0
 6-311+G(2d,p)
 ****
 33  34 0
 6-311+G(2d,p)
 ****
 1  2  14  15  16  17  18  19  20  21  22  24  25  26  27 0
 3-21G
 ****
 35  36  37  38  39  40  41  42  43  44  45 0
 3-21G
 ****


