%nproc=1
%NoSave
%Mem=1900MB
#P OB98/GEN NMR

erre ene a

0 1
  C     -405.552     324.786     -39.951
  O     -405.393     323.365     -40.072
  P     -406.036     322.640     -41.348
  C     -405.029     322.278     -43.721
  O     -404.852     322.162     -42.317
  C     -403.770     321.826     -44.465
  O     -402.640     322.676     -44.175
  C     -403.315     320.417     -44.101
  O     -404.048     319.436     -44.817
  C     -401.870     320.446     -44.565
  O     -401.812     320.246     -45.995
  C     -401.440     321.874     -44.213
  N     -397.037     321.091     -41.714
  C     -397.408     320.842     -42.988
  N     -398.599     321.063     -43.577
  C     -399.464     321.608     -42.704
  C     -399.234     321.915     -41.371
  C     -397.953     321.634     -40.873
  N     -397.580     321.891     -39.573
  N     -400.359     322.454     -40.790
  C     -401.252     322.490     -41.760
  N     -400.762     321.980     -42.931
  O     -406.699     323.855     -42.156
  O     -407.043     321.596     -41.005
  H     -402.123     319.335     -46.170
  H     -407.514     323.553     -42.595
  H     -396.635     320.411     -43.625
  H     -402.262     322.874     -41.663
  H     -400.773     322.309     -44.969
  H     -401.266     319.656     -44.111
  H     -403.359     320.259     -43.012
  H     -403.973     321.880     -45.544
  H     -405.270     323.311     -43.982
  H     -396.631     321.683     -39.296
  H     -398.250     322.318     -38.950
  H     -405.898     321.679     -44.025
  P     -405.414     318.912     -44.155
  C     -407.908     319.606     -44.432
  O     -406.593     319.664     -44.951
  O     -405.407     319.609     -42.717
  O     -405.529     317.431     -44.065
  H     -405.882     319.048     -42.071
  H     -408.502     320.391     -44.896
  H     -407.913     319.751     -43.347
  H     -408.355     318.635     -44.673
  H     -405.073     325.124     -39.056
  H     -406.594     325.026     -39.910
  H     -405.108     325.268     -40.797

 3  4  5  6  7  8  9  10  11  12  22  25  29  30  31  32 0
 6-311+G(2d,p)
 ****
 33  36  37 0
 6-311+G(2d,p)
 ****
 1  2  13  14  15  16  17  18  19  20  21  23  24  26 0
 3-21G
 ****
 27  28  34  35  38  39  40  41  42  43  44  45  46  47  48 0
 3-21G
 ****


