%nproc=1
%NoSave
%Mem=1900MB
#P OB98/GEN NMR

erre ene a

0 1
  C      312.488     772.802     114.593
  O      312.714     773.384     115.886
  P      312.912     774.974     115.963
  C      315.492     774.824     115.641
  O      314.262     775.357     115.178
  C      316.667     775.499     114.929
  O      316.522     775.419     113.499
  C      316.772     776.987     115.220
  O      317.349     777.204     116.504
  C      317.624     777.489     114.061
  O      319.034     777.437     114.383
  C      317.279     776.495     112.921
  N      316.562     777.129     111.830
  C      317.339     777.834     110.915
  O      318.564     777.919     111.069
  N      316.718     778.449     109.862
  C      315.422     778.396     109.757
  N      314.847     779.029     108.688
  C      314.556     777.683     110.713
  C      315.181     777.071     111.722
  O      313.291     775.224     117.495
  O      311.700     775.754     115.552
  H      319.299     776.504     114.238
  H      312.946     776.091     117.790
  H      313.479     777.656     110.585
  H      314.633     776.525     112.478
  H      318.200     776.059     112.524
  H      317.394     778.528     113.822
  H      315.776     777.449     115.179
  H      317.603     774.992     115.224
  H      315.481     779.517     108.048
  H      315.526     773.741     115.475
  H      313.849     779.043     108.513
  H      315.560     774.970     116.729
  P      316.375     777.257     117.771
  C      315.714     779.617     117.009
  O      315.247     778.335     117.388
  O      317.267     778.069     118.834
  O      315.897     775.957     118.320
  H      316.815     778.086     119.699
  H      314.879     780.180     116.573
  H      316.494     779.545     116.257
  H      316.078     780.157     117.889
  H      312.375     771.743     114.694
  H      313.322     773.013     113.956
  H      311.599     773.217     114.166

 3  4  5  6  7  8  9  10  11  12  13  21  23  27  28  29  30  32 0
 6-311+G(2d,p)
 ****
 34  35 0
 6-311+G(2d,p)
 ****
 1  2  14  15  16  17  18  19  20  22  24  25  26 0
 3-21G
 ****
 31  33  36  37  38  39  40  41  42  43  44  45  46 0
 3-21G
 ****


