%nproc=1
%NoSave
%Mem=1900MB
#P OB98/GEN NMR

erre ene a

0 1
  C      -37.701     -44.745     302.106
  O      -38.196     -45.199     300.833
  P      -37.654     -46.593     300.236
  C      -36.290     -47.356     298.133
  O      -36.761     -46.284     298.939
  C      -35.829     -46.833     296.765
  O      -36.930     -46.206     296.067
  C      -34.742     -45.770     296.838
  O      -33.467     -46.328     297.111
  C      -34.850     -45.143     295.450
  O      -34.122     -45.917     294.481
  C      -36.364     -45.210     295.184
  N      -37.027     -43.919     295.338
  C      -36.583     -42.895     294.512
  O      -35.652     -43.019     293.717
  N      -37.235     -41.698     294.642
  C      -38.215     -41.410     295.556
  O      -38.747     -40.312     295.637
  C      -38.581     -42.510     296.459
  C      -37.976     -43.694     296.311
  O      -38.981     -47.214     299.578
  O      -37.061     -47.539     301.229
  H      -34.192     -45.434     293.629
  H      -38.919     -48.189     299.580
  H      -36.957     -40.945     294.032
  H      -39.339     -42.321     297.213
  H      -38.238     -44.517     296.973
  H      -36.552     -45.580     294.168
  H      -34.442     -44.127     295.420
  H      -35.006     -45.012     297.592
  H      -35.490     -47.693     296.169
  H      -37.097     -48.076     297.992
  H      -35.465     -47.858     298.653
  P      -32.752     -45.868     298.469
  C      -31.447     -43.692     299.126
  O      -32.307     -44.343     298.213
  O      -31.390     -46.715     298.403
  O      -33.584     -46.111     299.691
  H      -31.080     -46.835     297.486
  H      -30.731     -44.390     299.575
  H      -32.045     -43.225     299.919
  H      -30.889     -42.918     298.595
  H      -38.159     -43.810     302.354
  H      -36.640     -44.619     302.052
  H      -37.936     -45.468     302.859

 3  4  5  6  7  8  9  10  11  12  13  23  28  29  30  31  32 0
 6-311+G(2d,p)
 ****
 33  34 0
 6-311+G(2d,p)
 ****
 1  2  14  15  16  17  18  19  20  21  22  24  25  26 0
 3-21G
 ****
 27  35  36  37  38  39  40  41  42  43  44  45 0
 3-21G
 ****


