%nproc=1
%NoSave
%Mem=1900MB
#P OB98/GEN NMR

erre ene a

0 1
  C      558.083    -897.500    -448.938
  O      558.764    -897.930    -450.111
  P      559.993    -897.040    -450.647
  C      561.941    -898.530    -449.789
  O      561.239    -897.310    -449.665
  C      563.450    -898.270    -449.810
  O      563.770    -897.550    -451.022
  C      563.981    -897.450    -448.626
  O      565.314    -897.910    -448.355
  C      564.031    -896.040    -449.196
  O      564.919    -895.210    -448.471
  C      564.448    -896.320    -450.619
  N      566.177    -892.860    -453.878
  C      566.863    -893.740    -453.044
  N      568.192    -893.720    -453.162
  N      566.295    -894.550    -452.223
  C      564.939    -894.460    -452.215
  C      564.140    -893.630    -452.965
  C      564.785    -892.750    -453.908
  O      564.200    -892.030    -454.720
  N      562.825    -893.770    -452.627
  C      562.811    -894.760    -451.766
  N      564.066    -895.240    -451.523
  O      559.532    -895.560    -450.248
  O      560.322    -897.180    -452.109
  H      564.530    -895.050    -447.582
  H      559.091    -895.120    -451.006
  H      566.660    -892.270    -454.534
  H      561.935    -895.170    -451.283
  H      565.526    -896.480    -450.730
  H      563.029    -895.590    -449.158
  H      568.725    -893.140    -453.826
  H      563.360    -897.540    -447.725
  H      568.739    -894.360    -452.610
  H      563.957    -899.240    -449.864
  H      561.657    -899.010    -450.737
  H      561.662    -899.220    -448.964
  P      565.927    -897.620    -446.908
  C      564.792    -899.420    -445.416
  O      564.827    -898.060    -445.832
  O      565.897    -896.030    -446.795
  O      567.309    -898.160    -446.703
  H      566.652    -895.720    -446.266
  H      564.336    -899.500    -444.415
  H      565.791    -899.850    -445.350
  H      564.226    -900.000    -446.135
  H      557.297    -898.189    -448.709
  H      557.668    -896.528    -449.103
  H      558.772    -897.460    -448.120

 3  4  5  6  7  8  9  10  11  12  23  26  30  31 0
 6-311+G(2d,p)
 ****
 33  35  36  37  38 0
 6-311+G(2d,p)
 ****
 1  2  13  14  15  16  17  18  19  20  21  22  24  25 0
 3-21G
 ****
 27  28  29  32  34  39  40  41  42  43  44  45  46  47  48  49 0
 3-21G
 ****


