%nproc=1
%NoSave
%Mem=1900MB
#P OB98/GEN NMR

erre ene a

0 1
  C     -122.849     178.242    -146.010
  O     -121.991     177.214    -145.559
  H     -123.583     177.808    -146.694
  H     -122.284     179.010    -146.543
  H     -123.381     178.689    -145.166
  P     -120.749     177.611    -144.628
  C     -119.094     176.994    -146.517
  O     -119.542     177.992    -145.611
  C     -117.641     177.252    -146.937
  O     -117.619     178.337    -147.907
  C     -116.722     177.660    -145.775
  O     -115.403     177.198    -146.091
  C     -116.793     179.172    -145.854
  O     -115.776     179.777    -145.096
  C     -116.763     179.371    -147.372
  N     -117.197     180.700    -147.771
  C     -116.187     181.637    -147.995
  O     -115.006     181.328    -147.842
  N     -116.540     182.913    -148.357
  C     -117.792     183.241    -148.422
  N     -118.074     184.523    -148.771
  C     -118.891     182.295    -148.135
  C     -118.526     181.052    -147.823
  O     -120.400     176.632    -143.558
  O     -121.170     179.027    -144.007
  H     -115.924     179.634    -144.133
  H     -121.433     178.911    -143.076
  H     -119.919     182.622    -148.185
  H     -119.260     180.286    -147.595
  H     -115.754     179.200    -147.768
  H     -117.743     179.533    -145.447
  H     -117.044     177.254    -144.813
  H     -117.260     176.360    -147.449
  H     -117.290     185.140    -148.949
  H     -119.748     177.028    -147.393
  H     -119.009     184.897    -148.835
  H     -119.173     176.004    -146.056
  P     -114.860     175.751    -145.660
  C     -113.200     176.079    -143.713
  O     -114.535     175.752    -144.092
  O     -113.742     175.244    -146.513
  O     -116.130     174.781    -145.776
  H     -115.826     173.885    -146.013
  H     -113.113     176.045    -142.647
  H     -112.962     177.063    -144.059
  H     -112.523     175.374    -144.149

 6  7  8  9  10  11  12  13  14  15  16  26  30  31  32  33  35 0
 6-311+G(2d,p)
 ****
 37  38 0
 6-311+G(2d,p)
 ****
 1  2  3  4  5  17  18  19  20  21  22  23  24  25 0
 3-21G
 ****
 27  28  29  34  36  39  40  41  42  43  44  45  46 0
 3-21G
 ****


