%nproc=1
%NoSave
%Mem=1900MB
#P OB98/GEN NMR

erre ene a

0 1
  C     -155.617      38.439     101.057
  O     -155.458      37.119     100.527
  P     -156.505      36.490      99.486
  C     -154.722      35.148      98.205
  O     -155.961      35.086      98.909
  C     -154.107      33.766      97.950
  O     -153.560      33.204      99.177
  C     -155.074      32.717      97.379
  O     -154.284      31.857      96.558
  C     -155.528      31.988      98.633
  O     -156.099      30.710      98.369
  C     -154.230      31.951      99.425
  N     -154.350      28.491     103.205
  C     -153.914      28.412     101.932
  N     -153.878      29.383     100.994
  C     -154.313      30.552     101.495
  C     -154.774      30.790     102.783
  C     -154.797      29.690     103.657
  N     -155.282      29.754     104.945
  N     -155.172      32.109     102.924
  C     -154.957      32.654     101.744
  N     -154.433      31.752     100.845
  O     -156.962      37.446      98.423
  O     -157.757      36.053     100.395
  H     -156.485      30.375      99.201
  H     -158.583      36.347      99.965
  H     -153.552      27.434     101.619
  H     -155.180      33.679     101.469
  H     -153.573      31.143      99.063
  H     -156.294      32.594      99.142
  H     -155.900      33.154      96.810
  H     -153.255      33.908      97.269
  H     -154.022      35.757      98.788
  H     -155.339      28.882     105.470
  H     -155.737      30.599     105.259
  H     -154.887      35.662      97.247
  P     -154.580      31.681      94.984
  C     -152.079      31.536      94.442
  O     -153.335      30.879      94.371
  O     -154.926      32.948      94.265
  O     -155.774      30.618      94.913
  H     -156.216      30.681      94.046
  H     -152.028      32.315      93.680
  H     -151.288      30.805      94.264
  H     -151.922      31.985      95.432
  H     -154.811      38.654     101.727
  H     -156.546      38.502     101.584
  H     -155.613      39.148     100.256

 3  4  5  6  7  8  9  10  11  12  22  25  29  30  31  32 0
 6-311+G(2d,p)
 ****
 33  36  37 0
 6-311+G(2d,p)
 ****
 1  2  13  14  15  16  17  18  19  20  21  23  24  26 0
 3-21G
 ****
 27  28  34  35  38  39  40  41  42  43  44  45  46  47  48 0
 3-21G
 ****


