%nproc=1
%NoSave
%Mem=1900MB
#P OB98/GEN NMR

erre ene a

0 1
  C     1110.759     730.197    -519.418
  O     1110.683     729.457    -518.214
  H     1110.667     729.509    -520.260
  H     1111.714     730.722    -519.490
  H     1109.933     730.921    -519.466
  P     1110.903     730.228    -516.828
  C     1108.579     729.177    -516.368
  O     1109.834     729.554    -515.825
  C     1107.571     728.913    -515.253
  O     1107.798     727.615    -514.643
  C     1107.640     729.913    -514.086
  O     1107.085     731.180    -514.402
  C     1106.809     729.152    -513.052
  O     1105.421     729.266    -513.379
  C     1107.312     727.697    -513.274
  N     1108.391     727.327    -512.331
  C     1108.062     727.359    -510.976
  O     1106.938     727.685    -510.598
  N     1109.033     727.039    -510.054
  C     1110.237     726.753    -510.470
  N     1111.185     726.508    -509.498
  C     1110.618     726.689    -511.888
  C     1109.661     726.985    -512.774
  O     1110.879     731.720    -516.886
  O     1112.290     729.638    -516.253
  H     1104.916     728.749    -512.729
  H     1112.476     730.092    -515.395
  H     1111.632     726.447    -512.170
  H     1109.860     726.979    -513.824
  H     1106.488     726.986    -513.168
  H     1106.944     729.533    -512.029
  H     1108.663     730.002    -513.717
  H     1106.572     728.890    -515.706
  H     1110.899     726.598    -508.538
  H     1108.727     728.276    -516.980
  H     1112.162     726.546    -509.728
  H     1108.185     729.979    -516.997
  P     1108.036     732.479    -514.214
  C     1106.508     733.723    -515.914
  O     1107.149     733.738    -514.641
  O     1109.088     732.318    -515.406
  O     1108.666     732.613    -512.856
  H     1109.896     731.852    -515.084
  H     1105.958     734.631    -516.047
  H     1105.839     732.889    -515.967
  H     1107.246     733.637    -516.684

 6  7  8  9  10  11  12  13  14  15  16  26  30  31  32  33  35 0
 6-311+G(2d,p)
 ****
 37  38 0
 6-311+G(2d,p)
 ****
 1  2  3  4  5  17  18  19  20  21  22  23  24  25 0
 3-21G
 ****
 27  28  29  34  36  39  40  41  42  43  44  45  46 0
 3-21G
 ****


