%nproc=1
%NoSave
%Mem=1900MB
#P OB98/GEN NMR

erre ene a

0 1
  C      326.808    -238.433     -22.814
  O      327.861    -238.802     -21.945
  H      326.689    -237.348     -22.782
  H      325.875    -238.903     -22.493
  H      327.040    -238.734     -23.840
  P      328.221    -240.363     -21.881
  C      330.744    -239.942     -22.385
  O      329.773    -240.440     -21.477
  C      332.149    -240.059     -21.776
  O      332.276    -239.078     -20.708
  C      332.436    -241.438     -21.153
  O      333.844    -241.704     -21.264
  C      332.082    -241.200     -19.696
  O      332.626    -242.213     -18.884
  C      332.658    -239.799     -19.517
  N      333.974    -237.930     -14.958
  C      334.707    -238.464     -15.961
  N      334.281    -238.931     -17.152
  C      332.948    -238.780     -17.270
  C      332.071    -238.258     -16.336
  C      332.632    -237.823     -15.125
  N      331.889    -237.300     -14.091
  N      330.772    -238.298     -16.815
  C      330.870    -238.827     -18.018
  N      332.165    -239.132     -18.334
  O      328.205    -240.805     -23.420
  O      327.313    -241.203     -21.048
  H      332.273    -242.161     -17.971
  H      327.323    -241.143     -23.660
  H      335.776    -238.524     -15.782
  H      330.045    -239.021     -18.692
  H      333.755    -239.804     -19.462
  H      330.998    -241.205     -19.547
  H      331.873    -242.251     -21.619
  H      332.895    -239.800     -22.537
  H      330.517    -238.891     -22.597
  H      330.704    -240.514     -23.315
  H      332.366    -237.037     -13.243
  H      330.886    -237.247     -14.186
  P      334.396    -242.478     -22.558
  C      336.912    -241.853     -22.260
  O      335.939    -242.879     -22.358
  O      334.494    -241.294     -23.635
  O      333.523    -243.573     -23.074
  H      334.114    -241.589     -24.484
  H      337.880    -242.290     -22.130
  H      336.688    -241.228     -21.421
  H      336.903    -241.266     -23.155

 6  7  8  9  10  11  12  13  14  15  25  28  32  33  34  35 0
 6-311+G(2d,p)
 ****
 36  37  40 0
 6-311+G(2d,p)
 ****
 1  2  3  4  5  16  17  18  19  20  21  22  23  24 0
 3-21G
 ****
 26  27  29  30  31  38  39 41  42  43  44  45  46  47  48 0
 3-21G
 ****


