%nproc=1
%NoSave
%Mem=1900MB
#P OB98/GEN NMR

erre ene a

0 1
  C       31.276     131.954     114.126
  O       30.699     131.756     112.844
  P       29.285     130.994     112.780
  C       27.972     133.197     113.171
  O       28.274     131.890     113.645
  C       26.704     133.181     112.329
  O       26.929     132.430     111.121
  C       25.507     132.523     112.999
  O       24.856     133.402     113.904
  C       24.625     132.224     111.796
  O       23.892     133.407     111.426
  C       25.656     131.871     110.711
  N       27.056     128.283     107.426
  C       27.039     129.656     107.283
  N       27.484     130.143     106.104
  N       26.622     130.477     108.209
  C       26.244     129.851     109.348
  C       26.213     128.500     109.610
  C       26.629     127.598     108.557
  O       26.604     126.372     108.603
  N       25.782     128.249     110.887
  C       25.588     129.443     111.409
  N       25.825     130.447     110.504
  O       29.524     129.711     113.706
  O       28.830     130.617     111.413
  H       23.208     133.544     112.109
  H       28.916     128.993     113.441
  H       27.403     127.698     106.687
  H       25.277     129.624     112.428
  H       25.398     132.335     109.752
  H       23.887     131.439     111.992
  H       27.938     129.572     105.408
  H       25.794     131.585     113.487
  H       27.514     131.148     105.994
  H       26.468     134.215     112.046
  H       28.803     133.558     112.556
  H       27.857     133.867     114.029
  P       24.090     132.721     115.141
  C       26.022     133.466     116.709
  O       25.231     132.400     116.218
  O       23.680     131.284     114.571
  O       22.912     133.491     115.633
  H       22.893     130.946     115.042
  H       25.436     134.382     116.818
  H       26.855     133.645     116.024
  H       26.420     133.187     117.687
  H       32.208     132.469     114.022
  H       31.443     131.006     114.592
  H       30.612     132.536     114.730

 3  4  5  6  7  8  9  10  11  12  23  26  30  31  33  0
 6-311+G(2d,p)
 ****
 35  36  37  38 0
 6-311+G(2d,p)
 ****
 1  2  13  14  15  16  17  18  19  20  21  22  24  25  27  28  29 0
 3-21G
 ****
 32  34  39  40  41  42  43  44  45  46  47  48  49 0
 3-21G
 ****


