%nproc=1
%NoSave
%Mem=1900MB
#P OB98/GEN NMR

erre ene a

0 1
  C      -99.723    -239.382     -41.283
  O     -100.379    -238.216     -40.835
  H      -99.852    -240.166     -40.532
  H      -98.654    -239.184     -41.404
  H     -100.142    -239.733     -42.230
  P     -100.626    -237.022     -41.871
  C      -98.447    -235.719     -41.404
  O      -99.184    -236.495     -42.337
  C      -97.349    -234.916     -42.111
  O      -96.392    -235.837     -42.695
  C      -97.920    -234.078     -43.263
  O      -97.144    -232.909     -43.511
  C      -97.796    -235.016     -44.452
  O      -97.772    -234.332     -45.706
  C      -96.497    -235.750     -44.125
  N      -93.907    -238.959     -47.123
  C      -93.735    -237.600     -46.942
  N      -92.737    -237.022     -47.653
  N      -94.485    -236.872     -46.158
  C      -95.484    -237.568     -45.565
  C      -95.770    -238.909     -45.683
  C      -94.911    -239.712     -46.529
  O      -95.034    -240.914     -46.740
  N      -96.871    -239.254     -44.938
  C      -97.252    -238.126     -44.375
  N      -96.427    -237.078     -44.705
  O     -101.148    -235.823     -40.946
  O     -101.587    -237.318     -42.982
  H      -97.011    -233.723     -45.691
  H     -101.650    -235.178     -41.478
  H      -93.283    -239.477     -47.715
  H      -98.102    -238.015     -43.715
  H      -95.630    -235.184     -44.491
  H      -98.668    -235.675     -44.461
  H      -92.273    -237.506     -48.408
  H      -98.955    -233.788     -43.100
  H      -92.798    -236.007     -47.777
  H      -96.801    -234.307     -41.385
  H      -98.010    -236.415     -40.684
  H      -99.113    -235.056     -40.851
  P      -97.614    -231.524     -42.860
  C      -98.804    -230.361     -44.917
  O      -98.885    -230.959     -43.644
  O      -96.444    -230.507     -43.243
  O      -97.841    -231.585     -41.380
  H      -95.985    -230.195     -42.441
  H      -99.782    -230.063     -45.234
  H      -98.401    -231.064     -45.616
  H      -98.168    -229.502     -44.868

 6  7  8  9  10  11  12  13  14  15  26  29  33  34 0
 6-311+G(2d,p)
 ****
 36  38  39  40  41 0
 6-311+G(2d,p)
 ****
 1  2  3  4  5  16  17  18  19  20  21  22  23  24  25 0
 3-21G
 ****
 27  28  30  31  32  35  37  42  43  44  45  46  47 0
 3-21G
 ****
 48  49 0
 3-21G
 ****


