%nproc=1
%NoSave
%Mem=1900MB
#P OB98/GEN NMR

erre ene a

0 1
  C      -30.465      14.383    -198.710
  O      -31.165      13.244    -199.173
  H      -31.185      15.094    -198.288
  H      -29.946      14.866    -199.544
  H      -29.744      14.105    -197.935
  P      -30.271      11.990    -199.614
  C      -29.744      13.093    -201.938
  O      -29.243      12.509    -200.740
  C      -28.796      12.808    -203.101
  O      -27.454      13.220    -202.777
  C      -28.651      11.333    -203.441
  O      -29.795      10.804    -204.082
  C      -27.413      11.369    -204.331
  O      -27.748      11.684    -205.688
  C      -26.581      12.505    -203.691
  N      -25.387      12.000    -203.040
  C      -24.173      12.455    -203.570
  O      -24.167      13.250    -204.517
  N      -23.001      11.976    -203.045
  C      -23.034      11.096    -202.088
  N      -21.841      10.635    -201.640
  C      -24.293      10.587    -201.500
  C      -25.422      11.081    -202.017
  O      -31.309      11.101    -200.447
  O      -29.612      11.263    -198.490
  H      -28.175      12.566    -205.670
  H      -31.806      11.605    -201.118
  H      -24.265       9.864    -200.699
  H      -26.389      10.760    -201.643
  H      -26.273      13.234    -204.458
  H      -26.901      10.399    -204.344
  H      -28.402      10.758    -202.532
  H      -29.135      13.387    -203.972
  H      -21.005      10.966    -202.107
  H      -29.878      14.175    -201.813
  H      -21.745       9.893    -200.954
  H      -30.729      12.658    -202.135
  P      -30.386       9.368    -203.679
  C      -29.264       8.336    -205.757
  O      -29.414       8.271    -204.345
  O      -31.830       9.170    -203.977
  O      -30.011       9.245    -202.124
  H      -29.059       9.286    -201.926
  H      -28.599       7.563    -206.081
  H      -28.862       9.289    -206.029
  H      -30.218       8.205    -206.223

 6  7  8  9  10  11  12  13  14  15  16  26  30  31  32  33  35 0
 6-311+G(2d,p)
 ****
 37  38 0
 6-311+G(2d,p)
 ****
 1  2  3  4  5  17  18  19  20  21  22  23  24  25 0
 3-21G
 ****
 27  28  29  34  36  39  40  41  42  43  44  45  46 0
 3-21G
 ****


