%nproc=1
%NoSave
%Mem=1900MB
#P OB98/GEN NMR

erre ene a

0 1
  C      438.671     102.851    -144.380
  O      437.864     103.028    -145.530
  H      438.050     102.845    -143.481
  H      439.193     101.895    -144.461
  H      439.411     103.656    -144.316
  P      436.977     104.365    -145.592
  C      435.039     102.847    -146.422
  O      435.756     104.067    -146.601
  C      433.886     102.777    -147.431
  O      432.898     103.771    -147.071
  C      434.302     103.007    -148.892
  O      433.934     101.883    -149.696
  C      433.465     104.204    -149.335
  O      432.957     104.074    -150.662
  C      432.342     104.247    -148.301
  N      430.311     108.187    -150.818
  C      430.375     106.872    -151.120
  N      430.835     105.858    -150.367
  C      431.232     106.314    -149.160
  C      431.199     107.615    -148.697
  C      430.734     108.591    -149.603
  N      430.721     109.941    -149.314
  N      431.711     107.700    -147.412
  C      432.072     106.461    -147.113
  N      431.830     105.596    -148.152
  O      437.900     105.379    -146.418
  O      436.582     104.926    -144.269
  H      432.226     103.423    -150.619
  H      437.935     106.240    -145.952
  H      430.016     106.602    -152.114
  H      432.555     106.147    -146.196
  H      431.499     103.595    -148.577
  H      434.087     105.107    -149.280
  H      435.370     103.211    -149.004
  H      433.401     101.792    -147.324
  H      434.627     102.812    -145.407
  H      430.476     110.573    -150.048
  H      431.134     110.249    -148.445
  H      435.724     102.007    -146.550
  P      435.018     100.690    -149.802
  C      433.868      99.988    -152.036
  O      434.408      99.573    -150.783
  O      434.940     100.002    -148.361
  O      436.405     101.158    -150.123
  H      435.788      99.571    -148.143
  H      433.505      99.134    -152.568
  H      434.631     100.469    -152.612
  H      433.063     100.673    -151.868

 6  7  8  9  10  11  12  13  14  15  25  28  32  33  34  35 0
 6-311+G(2d,p)
 ****
 36  39  40 0
 6-311+G(2d,p)
 ****
 1  2  3  4  5  16  17  18  19  20  21  22  23  24 0
 3-21G
 ****
 26  27  29  30  31  37  38  41  42  43  44  45  46  47  48 0
 3-21G
 ****


