%nproc=1
%NoSave
%Mem=1900MB
#P OB98/GEN NMR

erre ene a

0 1
  C     -194.209    -270.494     -36.008
  O     -193.821    -269.797     -37.175
  P     -192.438    -268.988     -37.218
  C     -192.443    -269.930     -39.621
  O     -192.084    -268.837     -38.778
  C     -192.250    -269.568     -41.093
  O     -190.958    -268.970     -41.303
  C     -192.316    -270.759     -42.040
  O     -193.659    -271.161     -42.246
  C     -191.625    -270.192     -43.271
  O     -192.534    -269.415     -44.070
  C     -190.539    -269.288     -42.648
  N     -189.220    -269.910     -42.670
  C     -188.131    -269.029     -42.703
  O     -188.317    -267.812     -42.745
  N     -186.861    -269.551     -42.738
  C     -186.696    -270.838     -42.760
  N     -185.416    -271.294     -42.808
  C     -187.817    -271.800     -42.759
  C     -189.038    -271.270     -42.716
  O     -191.347    -269.540     -36.365
  O     -192.876    -267.502     -36.809
  H     -192.860    -268.698     -43.490
  H     -193.066    -267.437     -35.841
  H     -187.630    -272.861     -42.792
  H     -189.917    -271.903     -42.715
  H     -190.478    -268.335     -43.187
  H     -191.226    -270.981     -43.920
  H     -191.721    -271.588     -41.634
  H     -193.017    -268.828     -41.364
  H     -184.676    -270.601     -42.838
  H     -193.493    -270.170     -39.442
  H     -185.176    -272.274     -42.862
  H     -191.841    -270.804     -39.354
  P     -193.979    -272.650     -42.733
  C     -196.309    -272.091     -41.819
  O     -195.572    -272.819     -42.780
  O     -193.246    -273.732     -42.009
  O     -193.574    -272.633     -44.284
  H     -193.075    -273.444     -44.490
  H     -197.348    -272.017     -42.154
  H     -195.905    -271.082     -41.694
  H     -196.282    -272.614     -40.863
  H     -195.154    -270.968     -36.173
  H     -194.292    -269.806     -35.193
  H     -193.474    -271.236     -35.775

 3  4  5  6  7  8  9  10  11  12  13  23  27  28  29  30  32 0
 6-311+G(2d,p)
 ****
 34  35 0
 6-311+G(2d,p)
 ****
 1  2  14  15  16  17  18  19  20  21  22  24  25  26 0
 3-21G
 ****
 31  33  36  37  38  39  40  41  42  43  44  45  46 0
 3-21G
 ****


