%nproc=1
%NoSave
%Mem=1900MB
#P OB98/GEN NMR

erre ene a

0 1
  C      143.352     -12.954    -150.457
  O      142.386     -12.312    -151.261
  P      141.035     -13.018    -151.742
  C      140.373     -14.938    -153.363
  O      141.404     -14.071    -152.900
  C      140.521     -15.304    -154.848
  O      140.148     -14.172    -155.660
  C      141.988     -15.605    -155.174
  O      142.525     -16.888    -154.922
  C      142.191     -15.092    -156.594
  O      142.105     -16.131    -157.570
  C      141.048     -14.090    -156.778
  N      143.983     -10.846    -159.342
  C      143.585     -12.122    -159.691
  N      144.201     -12.660    -160.766
  N      142.685     -12.806    -159.032
  C      142.230     -12.171    -157.926
  C      142.539     -10.907    -157.485
  C      143.502     -10.146    -158.246
  O      143.944      -9.046    -157.922
  N      141.941     -10.623    -156.284
  C      141.302     -11.734    -155.975
  N      141.479     -12.714    -156.920
  O      139.845     -12.135    -151.929
  O      140.724     -13.989    -150.489
  H      142.283     -15.736    -158.445
  H      139.753     -14.043    -150.395
  H      144.740     -10.399    -159.842
  H      140.727     -11.886    -155.068
  H      140.459     -14.335    -157.670
  H      143.187     -14.647    -156.706
  H      144.997     -12.220    -161.206
  H      142.593     -14.937    -154.547
  H      144.061     -13.647    -160.948
  H      139.835     -16.108    -155.124
  H      139.419     -14.439    -153.182
  H      140.375     -15.855    -152.767
  P      143.850     -17.215    -154.089
  C      146.384     -17.011    -154.379
  O      145.120     -16.873    -155.003
  O      143.885     -18.816    -154.016
  O      143.890     -16.633    -152.715
  H      144.432     -19.098    -153.259
  H      147.132     -16.475    -154.969
  H      146.657     -18.070    -154.338
  H      146.368     -16.599    -153.367
  H      144.163     -12.282    -150.268
  H      143.719     -13.822    -150.965
  H      142.907     -13.246    -149.529

 3  4  5  6  7  8  9  10  11  12  23  26  30  31 0
 6-311+G(2d,p)
 ****
 33  35  36  37  38 0
 6-311+G(2d,p)
 ****
 1  2  13  14  15  16  17  18  19  20  21  22  24  25 0
 3-21G
 ****
 27  28  29  32  34  39  40  41  42  43  44  45  46  47  48  49 0
 3-21G
 ****


