%nproc=1
%NoSave
%Mem=1900MB
#P OB98/GEN NMR

erre ene a

0 1
  C     -104.072    -770.309    -288.517
  O     -104.734    -771.154    -287.604
  H     -103.741    -769.415    -287.985
  H     -104.753    -770.005    -289.315
  H     -103.199    -770.807    -288.943
  P     -105.323    -772.547    -288.139
  C     -103.381    -773.592    -286.780
  O     -104.092    -773.574    -288.006
  C     -102.259    -774.622    -286.837
  O     -101.284    -774.284    -287.852
  C     -101.443    -774.756    -285.555
  O     -102.123    -775.426    -284.509
  C     -100.259    -775.550    -286.080
  O     -100.642    -776.925    -286.259
  C     -100.011    -774.852    -287.435
  N      -98.990    -773.805    -287.350
  C      -97.665    -774.233    -287.180
  O      -97.398    -775.435    -287.096
  N      -96.677    -773.291    -287.072
  C      -96.971    -772.030    -287.106
  N      -95.953    -771.138    -286.987
  C      -98.358    -771.533    -287.264
  C      -99.302    -772.464    -287.379
  O     -105.987    -772.509    -289.478
  O     -106.292    -773.052    -286.964
  H      -99.947    -777.347    -286.793
  H     -106.692    -773.910    -287.252
  H      -98.561    -770.474    -287.257
  H     -100.342    -772.175    -287.493
  H      -99.710    -775.576    -288.202
  H      -99.401    -775.543    -285.405
  H     -101.081    -773.776    -285.218
  H     -102.706    -775.582    -287.131
  H      -95.017    -771.508    -286.875
  H     -104.086    -773.827    -285.978
  H      -96.105    -770.139    -286.923
  H     -102.942    -772.609    -286.587
  P     -102.869    -774.510    -283.417
  C     -105.003    -775.951    -283.011
  O     -104.437    -774.793    -283.593
  O     -102.676    -773.029    -283.990
  O     -102.372    -774.656    -282.013
  H     -101.930    -772.585    -283.540
  H     -106.051    -775.982    -283.225
  H     -104.856    -775.926    -281.951
  H     -104.530    -776.821    -283.416

 6  7  8  9  10  11  12  13  14  15  16  26  30  31  32  33  35 0
 6-311+G(2d,p)
 ****
 37  38 0
 6-311+G(2d,p)
 ****
 1  2  3  4  5  17  18  19  20  21  22  23  24  25 0
 3-21G
 ****
 27  28  29  34  36  39  40  41  42  43  44  45  46 0
 3-21G
 ****


