%nproc=1
%NoSave
%Mem=1900MB
#P OB98/GEN NMR

erre ene a

0 1
  C     -890.610    1057.727     738.363
  O     -891.820    1057.701     737.620
  P     -893.070    1058.515     738.233
  C     -894.880    1056.849     737.414
  O     -894.340    1058.148     737.337
  C     -896.200    1056.765     736.675
  O     -897.100    1057.777     737.150
  C     -896.100    1056.985     735.163
  O     -895.560    1055.861     734.503
  C     -897.550    1057.303     734.821
  O     -898.310    1056.090     734.737
  C     -897.990    1058.139     736.060
  N     -899.250    1061.938     732.865
  C     -899.450    1060.606     732.805
  N     -899.070    1059.636     733.685
  C     -898.440    1060.197     734.711
  C     -898.140    1061.547     734.918
  C     -898.570    1062.431     733.940
  N     -898.400    1063.794     734.010
  N     -897.440    1061.705     736.107
  C     -897.320    1060.510     736.606
  N     -897.900    1059.570     735.824
  O     -892.730    1060.031     737.818
  O     -893.270    1058.370     739.723
  H     -897.870    1055.499     734.086
  H     -893.050    1060.660     738.507
  H     -900.000    1060.239     731.906
  H     -896.820    1060.276     737.545
  H     -899.010    1057.893     736.358
  H     -897.660    1057.840     733.859
  H     -895.460    1057.873     734.953
  H     -896.660    1055.766     736.864
  H     -895.050    1056.564     738.473
  H     -898.620    1064.346     733.186
  H     -897.780    1064.148     734.738
  H     -894.140    1056.127     737.014
  P     -894.280    1056.082     733.573
  C     -894.880    1054.477     731.648
  O     -894.100    1054.683     732.824
  O     -893.080    1056.088     734.639
  O     -894.370    1057.287     732.681
  H     -893.160    1055.304     735.236
  H     -894.630    1053.503     731.217
  H     -894.660    1055.263     730.911
  H     -895.940    1054.479     731.901
  H     -889.865    1057.153     737.852
  H     -890.778    1057.309     739.334
  H     -890.275    1058.738     738.463

 3  4  5  6  7  8  9  10  11  12  22  25  29  30  31  32 0
 6-311+G(2d,p)
 ****
 33  36  37 0
 6-311+G(2d,p)
 ****
 1  2  13  14  15  16  17  18  19  20  21  23  24  26 0
 3-21G
 ****
 27  28  34  35  38  39  40  41  42  43  44  45  46  47  48 0
 3-21G
 ****


