%nproc=1
%NoSave
%Mem=1900MB
#P OB98/GEN NMR

erre ene a

0 1
  C      121.014     235.395     -56.277
  O      122.050     234.819     -55.504
  H      120.302     234.610     -56.544
  H      121.420     235.834     -57.192
  H      120.494     236.161     -55.692
  P      123.226     235.807     -55.033
  C      123.389     235.090     -52.564
  O      123.972     235.002     -53.859
  C      124.376     234.601     -51.499
  O      124.211     233.170     -51.341
  C      125.837     234.865     -51.862
  O      126.557     235.227     -50.682
  C      126.330     233.521     -52.363
  O      127.742     233.366     -52.217
  C      125.498     232.552     -51.526
  N      127.649     227.970     -52.169
  C      127.948     229.001     -51.352
  N      127.309     230.188     -51.235
  C      126.232     230.228     -52.037
  C      125.801     229.258     -52.926
  C      126.568     228.079     -52.980
  N      126.285     227.035     -53.828
  N      124.679     229.687     -53.607
  C      124.428     230.894     -53.128
  N      125.349     231.267     -52.188
  O      122.809     237.196     -54.694
  O      124.260     235.676     -56.251
  H      127.956     233.422     -51.262
  H      124.372     234.749     -56.527
  H      128.818     228.864     -50.716
  H      123.606     231.533     -53.435
  H      125.939     232.362     -50.538
  H      126.091     233.413     -53.431
  H      125.952     235.646     -52.615
  H      124.111     235.061     -50.540
  H      122.474     234.486     -52.520
  H      126.878     226.218     -53.794
  H      125.475     227.088     -54.429
  H      123.122     236.136     -52.383
  P      127.458     236.551     -50.714
  C      126.238     238.255     -49.198
  O      127.301     237.310     -49.305
  O      127.316     237.411     -51.922
  O      128.948     235.957     -50.607
  H      129.541     236.493     -51.169
  H      126.242     238.687     -48.219
  H      125.304     237.761     -49.366
  H      126.371     239.026     -49.928

 6  7  8  9  10  11  12  13  14  15  25  28  32  33  34  35 0
 6-311+G(2d,p)
 ****
 36  39  40 0
 6-311+G(2d,p)
 ****
 1  2  3  4  5  16  17  18  19  20  21  22  23  24 0
 3-21G
 ****
 26  27  29  30  31  37  38  41  42  43  44  45  46  47 0
 3-21G
 ****
 48 0
 3-21G
 ****


