%nproc=1
%NoSave
%Mem=1900MB
#P OB98/GEN NMR

erre ene a

0 1
  C     -184.105    -224.684    -267.642
  O     -185.208    -223.802    -267.651
  H     -184.329    -225.527    -268.300
  H     -183.919    -225.064    -266.634
  H     -183.212    -224.178    -268.020
  P     -185.176    -222.533    -266.672
  C     -185.275    -220.974    -268.735
  O     -184.602    -221.305    -267.529
  C     -185.782    -219.527    -268.698
  O     -184.642    -218.625    -268.774
  C     -186.725    -219.169    -269.860
  O     -187.628    -218.165    -269.384
  C     -185.754    -218.580    -270.864
  O     -186.422    -217.880    -271.881
  C     -184.840    -217.779    -269.927
  N     -183.584    -217.404    -270.556
  C     -183.624    -216.289    -271.397
  O     -184.681    -215.689    -271.586
  N     -182.468    -215.900    -272.029
  C     -181.390    -216.605    -271.889
  N     -180.282    -216.172    -272.554
  C     -181.322    -217.823    -271.055
  C     -182.442    -218.158    -270.420
  O     -184.509    -222.745    -265.354
  O     -186.722    -222.149    -266.486
  H     -187.089    -217.264    -271.505
  H     -187.025    -222.432    -265.602
  H     -180.400    -218.385    -270.984
  H     -182.493    -219.039    -269.787
  H     -185.345    -216.865    -269.581
  H     -185.178    -219.375    -271.354
  H     -187.281    -220.031    -270.239
  H     -186.263    -219.347    -267.729
  H     -180.377    -215.338    -273.121
  H     -186.117    -221.664    -268.842
  H     -179.393    -216.650    -272.536
  H     -184.603    -221.105    -269.590
  P     -188.820    -218.484    -268.356
  C     -187.912    -216.927    -266.510
  O     -188.305    -218.252    -266.858
  O     -189.477    -219.807    -268.578
  O     -189.880    -217.296    -268.570
  H     -190.779    -217.633    -268.393
  H     -187.591    -216.907    -265.490
  H     -188.742    -216.264    -266.636
  H     -187.108    -216.616    -267.143

 6  7  8  9  10  11  12  13  14  15  16  26  30  31  32  33  35 0
 6-311+G(2d,p)
 ****
 37  38 0
 6-311+G(2d,p)
 ****
 1  2  3  4  5  17  18  19  20  21  22  23  24  25 0
 3-21G
 ****
 27  28  29  34  36  39  40  41  42  43  44  45  46 0
 3-21G
 ****


