%nproc=1
%NoSave
%Mem=1900MB
#P OB98/GEN NMR

erre ene a

0 1
  C       13.732     -99.328    -192.769
  O       13.002     -98.296    -192.140
  H       14.299     -98.898    -193.597
  H       13.055    -100.088    -193.166
  H       14.432     -99.784    -192.064
  P       12.029     -98.670    -190.923
  C       12.425     -97.036    -188.965
  O       11.695     -97.299    -190.158
  C       13.640     -96.151    -189.274
  O       13.180     -95.035    -190.075
  C       14.299     -95.595    -188.003
  O       15.700     -95.850    -187.948
  C       13.833     -94.143    -187.978
  O       14.698     -93.265    -187.288
  C       13.633     -93.815    -189.460
  N       12.682     -92.732    -189.702
  C       13.118     -91.432    -189.462
  O       14.243     -91.125    -189.077
  N       12.192     -90.446    -189.693
  C       10.908     -90.629    -190.111
  O       10.127     -89.705    -190.303
  C       10.498     -92.026    -190.319
  C       11.388     -92.998    -190.108
  O       12.497     -99.778    -190.041
  O       10.640     -99.032    -191.633
  H       14.178     -92.466    -187.062
  H       10.511    -100.000    -191.621
  H       12.501     -89.499    -189.538
  H        9.481     -92.208    -190.639
  H       11.119     -94.039    -190.253
  H       14.580     -93.531    -189.922
  H       12.862     -94.101    -187.470
  H       13.916     -96.104    -187.111
  H       14.349     -96.724    -189.881
  H       12.751     -97.995    -188.551
  H       11.776     -96.534    -188.240
  P       16.379     -97.076    -187.189
  C       18.728     -96.877    -188.356
  O       17.961     -96.845    -187.160
  O       15.905     -98.433    -187.586
  O       15.960     -96.850    -185.648
  H       15.880     -97.741    -185.252
  H       19.758     -96.701    -188.124
  H       18.378     -96.118    -189.024
  H       18.625     -97.836    -188.820

 6  7  8  9  10  11  12  13  14  15  16  26  31  32  33  34  35 0
 6-311+G(2d,p)
 ****
 36  37 0
 6-311+G(2d,p)
 ****
 1  2  3  4  5  17  18  19  20  21  22  23  24  25 0
 3-21G
 ****
 27  28  29  30  38  39  40  41  42  43  44  45 0
 3-21G
 ****


