%nproc=1
%NoSave
%Mem=1900MB
#P OB98/GEN NMR

erre ene a

0 1
  C     2296.207     176.355     -16.475
  O     2295.735     176.460     -17.804
  P     2295.857     177.909     -18.502
  C     2296.406     177.656     -21.057
  O     2296.889     177.707     -19.721
  C     2296.691     176.271     -21.648
  O     2295.901     175.272     -20.963
  C     2296.315     176.147     -23.108
  O     2297.246     176.788     -23.958
  C     2296.252     174.627     -23.287
  O     2297.569     174.104     -23.450
  C     2295.673     174.181     -21.920
  N     2294.267     173.832     -21.995
  C     2293.958     172.481     -21.871
  O     2294.819     171.592     -21.750
  N     2292.638     172.140     -21.952
  C     2291.607     173.015     -22.154
  O     2290.442     172.652     -22.180
  C     2291.989     174.416     -22.302
  C     2293.246     174.768     -22.236
  O     2296.696     178.727     -17.407
  O     2294.533     178.489     -18.873
  H     2297.345     178.176     -16.930
  H     2297.458     173.121     -23.506
  H     2292.414     171.166     -21.862
  H     2291.165     175.138     -22.490
  H     2293.551     175.794     -22.354
  H     2296.234     173.325     -21.539
  H     2295.669     174.314     -24.152
  H     2295.317     176.565     -23.296
  H     2297.742     176.021     -21.510
  H     2296.915     178.408     -21.658
  H     2295.349     177.899     -21.066
  P     2296.996     178.354     -24.281
  C     2298.893     179.417     -22.838
  O     2297.525     179.203     -23.026
  O     2295.404     178.452     -24.167
  O     2297.533     178.792     -25.623
  H     2295.046     177.973     -23.383
  H     2299.029     180.271     -22.174
  H     2299.404     179.655     -23.779
  H     2299.361     178.518     -22.395
  H     2296.072     175.352     -16.127
  H     2295.659     177.027     -15.848
  H     2297.247     176.606     -16.445

 3  4  5  6  7  8  9  10  11  12  13  24  28  29  30  31  32 0
 6-311+G(2d,p)
 ****
 33  34 0
 6-311+G(2d,p)
 ****
 1  2  14  15  16  17  18  19  20  21  22  23  25  26  27 0
 3-21G
 ****
 35  36  37  38  39  40  41  42  43  44  45 0
 3-21G
 ****


