%nproc=1
%NoSave
%Mem=1900MB
#P OB98/GEN NMR

erre ene a

0 1
  C     -116.372     206.666      95.171
  O     -115.977     205.381      95.607
  H     -117.108     206.559      94.375
  H     -115.506     207.209      94.783
  H     -116.821     207.228      95.997
  P     -114.981     205.308      96.862
  C     -112.675     205.442      95.653
  O     -113.657     206.111      96.431
  C     -111.522     206.398      95.340
  O     -110.806     206.688      96.573
  C     -110.504     205.817      94.348
  O     -110.029     206.867      93.500
  C     -109.381     205.334      95.249
  O     -108.123     205.235      94.589
  C     -109.416     206.391      96.352
  N     -108.779     205.932      97.589
  C     -107.563     206.507      97.936
  O     -107.017     207.419      97.321
  N     -106.959     205.978      99.054
  C     -107.427     204.948      99.816
  O     -106.831     204.511     100.788
  C     -108.718     204.379      99.394
  C     -109.323     204.886      98.316
  O     -114.497     203.781      96.860
  O     -115.558     205.725      98.172
  H     -115.087     203.234      97.409
  H     -107.503     204.770      95.190
  H     -106.072     206.385      99.318
  H     -109.121     203.558      99.971
  H     -110.268     204.481      97.972
  H     -108.932     207.313      96.010
  H     -109.627     204.342      95.651
  H     -110.918     205.013      93.737
  H     -111.933     207.348      94.975
  H     -113.126     205.106      94.716
  H     -112.308     204.573      96.206
  P     -110.595     206.917      91.997
  C     -108.530     205.877      90.774
  O     -109.868     205.718      91.213
  O     -109.896     208.240      91.436
  O     -112.085     206.909      91.939
  H     -108.990     208.374      91.766
  H     -108.210     204.986      90.275
  H     -107.897     206.060      91.617
  H     -108.472     206.705      90.098

 6  7  8  9  10  11  12  13  14  15  16  27  31  32  33  34  35 0
 6-311+G(2d,p)
 ****
 36  37 0
 6-311+G(2d,p)
 ****
 1  2  3  4  5  17  18  19  20  21  22  23  24  25 0
 3-21G
 ****
 26  28  29  30  38  39  40  41  42  43  44  45 0
 3-21G
 ****


