%nproc=1
%NoSave
%Mem=1900MB
#P OB98/GEN NMR

erre ene a

0 1
  C      134.875     322.525     239.544
  O      135.748     322.346     240.641
  H      134.305     321.610     239.361
  H      134.175     323.334     239.777
  H      135.442     322.795     238.648
  P      136.836     321.174     240.514
  C      138.586     323.048     240.065
  O      138.034     321.806     239.651
  C      139.909     323.277     239.345
  O      140.360     324.636     239.552
  C      141.042     322.386     239.840
  O      141.011     321.093     239.258
  C      142.250     323.175     239.369
  O      142.436     322.984     237.954
  C      141.809     324.619     239.657
  N      142.993     328.740     242.454
  C      142.597     328.605     241.169
  N      142.279     327.474     240.508
  C      142.395     326.404     241.308
  C      142.784     326.386     242.639
  C      143.098     327.628     243.218
  N      143.535     327.765     244.517
  N      142.804     325.092     243.121
  C      142.419     324.347     242.105
  N      142.192     325.091     240.978
  O      136.165     320.140     239.492
  O      137.264     320.539     241.795
  H      143.180     323.555     237.685
  H      136.637     319.286     239.515
  H      142.525     329.527     240.601
  H      142.301     323.273     242.130
  H      142.205     325.335     238.928
  H      143.176     322.865     239.860
  H      141.058     322.328     240.936
  H      139.743     323.143     238.269
  H      138.755     323.019     241.147
  H      143.877     328.673     244.793
  H      143.758     326.935     245.045
  H      137.884     323.853     239.832
  P      141.784     319.915     240.033
  C      139.957     319.718     241.870
  O      141.318     320.002     241.567
  O      143.292     320.440     240.075
  O      141.667     318.570     239.393
  H      143.921     319.695     240.041
  H      139.798     319.816     242.924
  H      139.725     318.719     241.566
  H      139.324     320.406     241.348

 6  7  8  9  10  11  12  13  14  15  25  28  32  33  34  35 0
 6-311+G(2d,p)
 ****
 36  39  40 0
 6-311+G(2d,p)
 ****
 1  2  3  4  5  16  17  18  19  20  21  22  23  24 0
 3-21G
 ****
 26  27  29  30  31  37  38  41  42  43  44  45  46  47 0
 3-21G
 ****
 48 0
 3-21G
 ****


