%nproc=1
%NoSave
%Mem=1900MB
#P OB98/GEN NMR

erre ene a

0 1
  C       -6.304     -25.851      38.320
  O       -6.667     -25.342      37.048
  P       -6.519     -26.248      35.733
  C       -4.078     -25.486      35.466
  O       -4.958     -26.597      35.592
  C       -2.734     -25.927      34.891
  O       -2.078     -26.792      35.849
  C       -2.857     -26.701      33.583
  O       -1.752     -26.366      32.740
  C       -2.718     -28.158      33.994
  O       -2.223     -28.961      32.910
  C       -1.779     -28.042      35.198
  N       -0.750     -32.950      36.304
  C       -0.379     -32.167      35.268
  N       -0.710     -30.880      35.024
  C       -1.465     -30.390      36.021
  C       -1.918     -31.067      37.144
  C       -1.532     -32.413      37.269
  N       -1.902     -33.207      38.333
  N       -2.699     -30.241      37.931
  C       -2.696     -29.085      37.304
  N       -1.956     -29.121      36.152
  O       -7.141     -25.681      34.503
  O       -7.169     -27.651      36.136
  H       -1.300     -28.679      32.742
  H       -7.662     -28.026      35.380
  H        0.267     -32.638      34.532
  H       -3.219     -28.200      37.633
  H       -0.727     -28.022      34.889
  H       -3.699     -28.552      34.285
  H       -3.799     -26.506      33.060
  H       -2.101     -25.041      34.760
  H       -3.920     -25.056      36.460
  H       -1.478     -34.119      38.400
  H       -2.334     -32.762      39.132
  H       -4.541     -24.725      34.829
  P       -2.125     -25.682      31.329
  C       -2.002     -28.032      30.216
  O       -2.757     -26.867      30.458
  O       -0.966     -24.944      30.742
  O       -3.363     -24.759      31.751
  H       -3.815     -25.104      32.552
  H       -2.584     -28.700      29.576
  H       -1.792     -28.549      31.155
  H       -1.065     -27.783      29.708
  H       -6.474     -25.102      39.065
  H       -5.268     -26.120      38.314
  H       -6.896     -26.715      38.541

 3  4  5  6  7  8  9  10  11  12  22  25  29  30  31  32 0
 6-311+G(2d,p)
 ****
 33  36  37 0
 6-311+G(2d,p)
 ****
 1  2  13  14  15  16  17  18  19  20  21  23  24  26 0
 3-21G
 ****
 27  28  34  35  38  39  40  41  42  43  44  45  46  47  48 0
 3-21G
 ****


