%nproc=1
%NoSave
%Mem=1900MB
#P OB98/GEN NMR

erre ene a

0 1
  C       61.245    -177.168      76.872
  O       61.602    -178.506      76.588
  H       60.318    -176.909      76.353
  H       61.087    -177.066      77.949
  H       62.046    -176.490      76.567
  P       61.859    -178.859      75.043
  C       64.347    -179.556      74.908
  O       63.000    -179.991      75.013
  C       64.929    -179.312      76.299
  O       64.738    -180.516      77.086
  C       66.429    -178.972      76.302
  O       66.676    -177.797      77.083
  C       67.076    -180.158      76.992
  O       68.207    -179.795      77.776
  C       65.940    -180.711      77.842
  N       68.264    -183.950      81.019
  C       67.944    -182.645      81.153
  N       67.238    -181.865      80.310
  C       66.821    -182.571      79.245
  C       67.049    -183.911      78.983
  C       67.829    -184.609      79.921
  N       68.203    -185.925      79.757
  N       66.468    -184.283      77.785
  C       65.935    -183.175      77.311
  N       66.136    -182.111      78.151
  O       62.605    -177.554      74.489
  O       60.626    -179.160      74.262
  H       67.920    -179.099      78.395
  H       62.061    -177.158      73.782
  H       68.307    -182.161      82.055
  H       65.439    -183.076      76.354
  H       65.835    -180.162      78.788
  H       67.396    -180.881      76.232
  H       66.830    -178.828      75.293
  H       64.354    -178.514      76.785
  H       64.388    -178.622      74.336
  H       68.857    -186.312      80.418
  H       67.974    -186.386      78.888
  H       64.929    -180.318      74.379
  P       66.177    -176.405      76.450
  C       66.167    -174.977      78.620
  O       66.764    -175.210      77.351
  O       64.609    -176.401      76.771
  O       66.433    -176.284      74.985
  H       64.100    -176.299      75.945
  H       66.659    -174.157      79.101
  H       66.262    -175.854      79.225
  H       65.131    -174.744      78.489

 6  7  8  9  10  11  12  13  14  15  25  28  32  33  34  35 0
 6-311+G(2d,p)
 ****
 36  39  40 0
 6-311+G(2d,p)
 ****
 1  2  3  4  5  16  17  18  19  20  21  22  23  24 0
 3-21G
 ****
 26  27  29  30  31  37  38  41  42  43  44  45  46  47  48 0
 3-21G
 ****


