%nproc=1
%NoSave
%Mem=1900MB
#P OB98/GEN NMR

erre ene a

0 1
  C      -17.566     -17.565      -9.097
  O      -16.935     -18.826      -9.172
  H      -17.904     -17.279     -10.097
  H      -16.849     -16.820      -8.746
  H      -18.429     -17.597      -8.428
  P      -16.715     -19.619      -7.796
  C      -19.179     -20.422      -7.668
  O      -18.142     -19.667      -7.060
  C      -20.093     -21.027      -6.602
  O      -20.541     -19.959      -5.713
  C      -21.344     -21.720      -7.167
  O      -21.637     -22.871      -6.365
  C      -22.433     -20.690      -6.932
  O      -23.729     -21.274      -6.879
  C      -21.971     -20.086      -5.611
  N      -25.277     -17.799      -2.608
  C      -24.679     -19.038      -2.505
  N      -25.064     -19.823      -1.476
  N      -23.781     -19.478      -3.346
  C      -23.473     -18.586      -4.318
  C      -23.993     -17.334      -4.532
  C      -25.001     -16.864      -3.604
  O      -25.582     -15.786      -3.654
  N      -23.464     -16.769      -5.665
  C      -22.642     -17.687      -6.144
  N      -22.615     -18.808      -5.362
  O      -15.874     -18.575      -6.921
  O      -16.016     -20.931      -7.920
  H      -23.993     -21.516      -7.790
  H      -14.921     -18.763      -7.007
  H      -25.975     -17.514      -1.943
  H      -22.066     -17.598      -7.053
  H      -22.198     -20.730      -4.751
  H      -22.422     -19.942      -7.734
  H      -25.727     -19.542      -0.771
  H      -21.253     -22.014      -8.217
  H      -24.605     -20.719      -1.365
  H      -19.507     -21.725      -5.993
  H      -18.737     -21.231      -8.259
  H      -19.753     -19.772      -8.337
  P      -21.337     -24.318      -6.986
  C      -18.776     -24.346      -6.522
  O      -19.815     -24.354      -7.490
  O      -22.175     -24.306      -8.350
  O      -21.744     -25.451      -6.104
  H      -22.518     -25.200      -8.535
  H      -17.828     -24.373      -7.017
  H      -18.872     -25.203      -5.888
  H      -18.845     -23.456      -5.932

 6  7  8  9  10  11  12  13  14  15  26  29  33  34 0
 6-311+G(2d,p)
 ****
 36  38  39  40  41 0
 6-311+G(2d,p)
 ****
 1  2  3  4  5  16  17  18  19  20  21  22  23  24  25 0
 3-21G
 ****
 27  28  30  31  32  35  37  42  43  44  45  46  47 0
 3-21G
 ****
 48  49 0
 3-21G
 ****


