%nproc=1
%NoSave
%Mem=1900MB
#P OB98/GEN NMR

erre ene a

0 1
  C     -429.198     250.007     179.852
  O     -427.855     250.425     180.014
  H     -429.719     250.122     180.806
  H     -429.223     248.951     179.569
  H     -429.711     250.609     179.096
  P     -426.939     250.625     178.711
  C     -426.425     253.071     179.377
  O     -425.890     251.785     179.082
  C     -425.289     254.078     179.590
  O     -424.615     253.752     180.843
  C     -424.228     254.050     178.465
  O     -423.724     255.379     178.278
  C     -423.156     253.172     179.084
  O     -421.904     253.348     178.468
  C     -423.213     253.624     180.540
  N     -422.538     252.673     181.424
  C     -421.151     252.764     181.509
  O     -420.485     253.584     180.869
  N     -420.532     251.829     182.286
  C     -421.144     250.765     182.893
  O     -420.523     249.912     183.515
  C     -422.605     250.686     182.729
  C     -423.225     251.630     182.018
  O     -427.669     250.836     177.424
  O     -426.007     249.327     178.680
  H     -421.674     254.292     178.444
  H     -425.652     249.184     177.779
  H     -419.529     251.889     182.363
  H     -423.117     249.847     183.187
  H     -424.301     251.597     181.866
  H     -422.753     254.612     180.662
  H     -423.436     252.112     178.994
  H     -424.610     253.660     177.520
  H     -425.716     255.082     179.702
  H     -427.026     252.992     180.290
  H     -427.070     253.396     178.556
  P     -422.773     255.762     177.042
  C     -424.149     257.792     176.259
  O     -422.874     257.338     176.714
  O     -422.947     254.879     175.843
  O     -421.284     255.604     177.620
  H     -420.739     255.114     176.975
  H     -424.107     258.845     176.072
  H     -424.887     257.592     177.008
  H     -424.409     257.279     175.357

 6  7  8  9  10  11  12  13  14  15  16  26  31  32  33  34  35 0
 6-311+G(2d,p)
 ****
 36  37 0
 6-311+G(2d,p)
 ****
 1  2  3  4  5  17  18  19  20  21  22  23  24  25 0
 3-21G
 ****
 27  28  29  30  38  39  40  41  42  43  44  45 0
 3-21G
 ****


