%nproc=1
%NoSave
%Mem=1900MB
#P OB98/GEN NMR

erre ene a

0 1
  C      101.148     672.055    -611.270
  O      101.777     673.177    -611.873
  P      102.421     674.329    -610.968
  C      104.313     674.865    -612.623
  O      103.157     675.361    -611.971
  C      105.156     676.000    -613.206
  O      104.396     676.685    -614.230
  C      105.592     677.073    -612.178
  O      106.887     677.525    -612.584
  C      104.565     678.171    -612.378
  O      105.011     679.439    -611.899
  C      104.391     678.097    -613.901
  N      102.088     682.517    -615.121
  C      103.332     682.238    -614.668
  N      103.864     681.031    -614.345
  C      102.965     680.043    -614.527
  C      101.660     680.178    -614.962
  C      101.215     681.465    -615.294
  N       99.960     681.768    -615.783
  N      101.028     678.936    -614.971
  C      101.946     678.095    -614.549
  N      103.147     678.703    -614.331
  O      103.271     673.857    -609.840
  O      101.167     675.161    -610.447
  H      105.944     679.553    -612.147
  H      101.013     674.967    -609.489
  H      103.982     683.095    -614.552
  H      101.801     677.034    -614.385
  H      105.219     678.582    -614.445
  H      103.648     677.925    -611.849
  H      105.628     676.701    -611.142
  H      106.041     675.564    -613.702
  H      103.990     674.213    -613.442
  H       99.793     682.701    -616.118
  H       99.396     680.999    -616.159
  H      104.910     674.265    -611.922
  P      108.208     676.954    -611.866
  C      109.752     677.734    -613.735
  O      109.429     677.862    -612.372
  O      108.397     675.481    -611.964
  O      108.019     677.424    -610.325
  H      108.618     676.899    -609.753
  H      110.357     676.830    -613.898
  H      110.341     678.616    -614.045
  H      108.865     677.669    -614.356
  H      100.782     671.399    -612.032
  H      100.332     672.387    -610.663
  H      101.857     671.533    -610.661

 3  4  5  6  7  8  9  10  11  12  22  25  29  30  31  32 0
 6-311+G(2d,p)
 ****
 33  36  37 0
 6-311+G(2d,p)
 ****
 1  2  13  14  15  16  17  18  19  20  21  23  24  26 0
 3-21G
 ****
 27  28  34  35  38  39  40  41  42  43  44  45  46  47  48 0
 3-21G
 ****


