%nproc=1
%NoSave
%Mem=1900MB
#P OB98/GEN NMR

erre ene a

0 1
  C      -89.139    -871.356    -586.257
  O      -88.876    -871.697    -584.910
  H      -88.299    -870.777    -586.639
  H      -90.042    -870.742    -586.319
  H      -89.255    -872.255    -586.868
  P      -89.897    -872.664    -584.140
  C      -88.521    -874.831    -584.358
  O      -89.695    -874.130    -584.755
  C      -88.897    -876.185    -583.768
  O      -89.646    -876.002    -582.543
  C      -89.782    -877.034    -584.674
  O      -89.031    -877.603    -585.724
  C      -90.347    -878.026    -583.666
  O      -89.393    -879.056    -583.372
  C      -90.555    -877.123    -582.423
  N      -91.942    -876.661    -582.290
  C      -92.732    -877.356    -581.385
  O      -92.329    -878.309    -580.730
  N      -94.036    -876.942    -581.301
  C      -94.629    -875.985    -582.075
  O      -95.840    -875.801    -582.119
  C      -93.724    -875.235    -582.955
  C      -92.447    -875.609    -583.035
  O      -91.311    -872.195    -584.078
  O      -89.258    -872.797    -582.677
  H      -89.737    -872.212    -582.062
  H      -89.878    -879.758    -582.890
  H      -94.635    -877.471    -580.682
  H      -94.141    -874.426    -583.540
  H      -91.766    -875.087    -583.705
  H      -90.289    -877.660    -581.510
  H      -91.253    -878.514    -584.026
  H      -90.611    -876.425    -585.066
  H      -87.969    -876.721    -583.519
  H      -87.994    -874.233    -583.607
  H      -87.868    -874.959    -585.230
  P      -89.744    -878.380    -586.929
  C      -89.017    -876.885    -588.887
  O      -90.102    -877.308    -588.068
  O      -90.878    -879.260    -586.528
  O      -88.564    -879.228    -587.598
  H      -88.838    -880.172    -587.653
  H      -89.369    -876.175    -589.606
  H      -88.602    -877.731    -589.394
  H      -88.265    -876.431    -588.276

 6  7  8  9  10  11  12  13  14  15  16  27  31  32  33  34  35 0
 6-311+G(2d,p)
 ****
 36  37 0
 6-311+G(2d,p)
 ****
 1  2  3  4  5  17  18  19  20  21  22  23  24  25 0
 3-21G
 ****
 26  28  29  30  38  39  40  41  42  43  44  45 0
 3-21G
 ****


