%nproc=1
%NoSave
%Mem=1900MB
#P OB98/GEN NMR

erre ene a

0 1
  C      145.278     -35.448     115.386
  O      144.990     -35.040     116.711
  H      145.448     -34.561     114.773
  H      144.437     -36.007     114.976
  H      146.178     -36.071     115.366
  P      144.751     -36.214     117.783
  C      142.814     -37.924     118.178
  O      143.246     -36.723     117.543
  C      141.622     -38.523     117.430
  O      140.439     -37.720     117.722
  C      141.787     -38.520     115.896
  O      141.059     -39.637     115.356
  C      141.087     -37.227     115.505
  O      140.794     -37.224     114.125
  C      139.898     -37.289     116.453
  N      136.348     -34.234     114.418
  C      136.746     -35.492     114.109
  N      137.697     -36.241     114.707
  C      138.234     -35.577     115.742
  C      137.929     -34.299     116.182
  C      136.935     -33.609     115.459
  N      136.544     -32.327     115.765
  N      138.719     -33.958     117.269
  C      139.473     -35.011     117.483
  N      139.216     -36.021     116.596
  O      144.665     -35.424     119.176
  O      145.780     -37.287     117.810
  H      140.236     -36.463     113.884
  H      145.547     -35.395     119.593
  H      136.235     -35.949     113.261
  H      140.230     -35.106     118.260
  H      139.143     -38.033     116.146
  H      141.717     -36.360     115.712
  H      142.833     -38.570     115.576
  H      141.424     -39.535     117.810
  H      142.534     -37.686     119.211
  H      143.644     -38.643     118.185
  H      135.844     -31.891     115.179
  H      137.002     -31.819     116.513
  P      141.867     -40.803     114.592
  C      142.792     -41.288     112.192
  O      142.208     -40.352     113.085
  O      140.727     -41.908     114.362
  O      143.016     -41.395     115.351
  H      141.073     -42.790     114.601
  H      142.950     -40.823     111.241
  H      142.137     -42.126     112.075
  H      143.729     -41.620     112.587

 6  7  8  9  10  11  12  13  14  15  25  28  32  33  34  35 0
 6-311+G(2d,p)
 ****
 36  37  40 0
 6-311+G(2d,p)
 ****
 1  2  3  4  5  16  17  18  19  20  21  22  23  24 0
 3-21G
 ****
 26  27  29  30  31  38  39 41  42  43  44  45  46  47  48 0
 3-21G
 ****


