%nproc=1
%NoSave
%Mem=1900MB
#P OB98/GEN NMR

erre ene a

0 1
  C      214.835     102.010    -119.936
  O      215.872     101.103    -120.257
  H      213.908     101.669    -120.407
  H      215.075     103.009    -120.314
  H      214.691     102.046    -118.851
  P      217.347     101.476    -119.748
  C      218.873     103.563    -120.044
  O      217.805     102.777    -120.566
  C      219.563     104.308    -121.184
  O      220.198     103.354    -122.074
  C      218.620     105.115    -122.063
  O      218.254     106.357    -121.479
  C      219.468     105.293    -123.312
  O      220.362     106.407    -123.191
  C      220.243     103.962    -123.384
  N      219.704     103.079    -124.417
  C      220.653     102.443    -125.217
  O      221.866     102.595    -125.083
  N      220.156     101.646    -126.214
  C      218.831     101.470    -126.516
  O      218.456     100.785    -127.459
  C      217.879     102.179    -125.646
  C      218.351     102.944    -124.652
  O      218.249     100.303    -120.361
  O      217.497     101.580    -118.268
  H      218.517      99.687    -119.653
  H      219.801     107.210    -123.234
  H      220.821     101.173    -126.801
  H      216.821     102.063    -125.857
  H      217.665     103.488    -124.008
  H      221.299     104.146    -123.606
  H      218.843     105.473    -124.183
  H      217.731     104.519    -122.317
  H      220.342     104.953    -120.759
  H      219.599     102.913    -119.549
  H      218.468     104.267    -119.306
  P      216.750     106.875    -121.708
  C      215.571     107.766    -123.884
  O      216.759     107.634    -123.118
  O      216.674     108.041    -120.614
  O      215.728     105.798    -121.556
  H      217.551     108.422    -120.433
  H      215.786     108.300    -124.786
  H      214.839     108.302    -123.317
  H      215.193     106.795    -124.126

 6  7  8  9  10  11  12  13  14  15  16  27  31  32  33  34  35 0
 6-311+G(2d,p)
 ****
 36  37 0
 6-311+G(2d,p)
 ****
 1  2  3  4  5  17  18  19  20  21  22  23  24  25 0
 3-21G
 ****
 26  28  29  30  38  39  40  41  42  43  44  45 0
 3-21G
 ****


