%nproc=1
%NoSave
%Mem=1900MB
#P OB98/GEN NMR

erre ene a

0 1
  C     -322.774     271.639     -70.003
  O     -323.789     272.356     -70.672
  H     -321.837     271.774     -70.557
  H     -323.009     270.570     -69.975
  H     -322.637     272.021     -68.991
  P     -325.313     272.184     -70.187
  C     -325.999     270.898     -72.300
  O     -326.172     272.095     -71.554
  C     -325.338     271.171     -73.655
  O     -325.893     272.381     -74.236
  C     -323.814     271.351     -73.575
  O     -323.187     270.583     -74.601
  C     -323.616     272.841     -73.833
  O     -322.312     273.127     -74.338
  C     -324.788     273.137     -74.774
  N     -325.097     274.560     -74.866
  C     -324.216     275.344     -75.614
  O     -323.211     274.836     -76.129
  N     -324.462     276.690     -75.737
  C     -325.469     277.218     -75.124
  N     -325.659     278.556     -75.272
  C     -326.406     276.435     -74.278
  C     -326.163     275.124     -74.202
  O     -325.781     273.217     -69.219
  O     -325.386     270.689     -69.620
  H     -322.125     272.516     -75.078
  H     -326.175     270.601     -69.023
  H     -327.222     276.917     -73.771
  H     -326.803     274.471     -73.611
  H     -324.577     272.761     -75.789
  H     -323.745     273.396     -72.890
  H     -323.389     271.054     -72.616
  H     -325.605     270.357     -74.342
  H     -324.998     279.056     -75.859
  H     -326.985     270.432     -72.445
  H     -326.410     279.072     -74.830
  H     -325.360     270.219     -71.723
  P     -322.749     269.086     -74.201
  C     -320.183     269.272     -73.839
  O     -321.239     268.861     -74.706
  O     -323.621     268.177     -75.183
  O     -322.996     268.762     -72.769
  H     -324.397     267.813     -74.709
  H     -319.241     269.063     -74.301
  H     -320.253     268.739     -72.914
  H     -320.264     270.322     -73.652

 6  7  8  9  10  11  12  13  14  15  16  26  30  31  32  33  35 0
 6-311+G(2d,p)
 ****
 37  38 0
 6-311+G(2d,p)
 ****
 1  2  3  4  5  17  18  19  20  21  22  23  24  25 0
 3-21G
 ****
 27  28  29  34  36  39  40  41  42  43  44  45  46 0
 3-21G
 ****


