%nproc=1
%NoSave
%Mem=1900MB
#P OB98/GEN NMR

erre ene a

0 1
  C      667.615     183.247     768.389
  O      668.068     183.890     767.202
  P      668.920     185.242     767.378
  C      670.935     184.010     766.294
  O      670.463     184.784     767.395
  C      671.516     184.911     765.222
  O      670.451     185.591     764.523
  C      672.434     186.014     765.735
  O      673.742     185.540     765.999
  C      672.419     186.987     764.562
  O      673.358     186.545     763.566
  C      670.977     186.852     764.039
  N      668.072     190.717     762.540
  C      668.817     189.827     761.790
  N      668.754     189.972     760.450
  N      669.555     188.877     762.312
  C      669.484     188.830     763.663
  C      668.791     189.662     764.515
  C      668.017     190.735     763.927
  O      667.392     191.592     764.548
  N      668.959     189.289     765.824
  C      669.729     188.218     765.766
  N      670.095     187.919     764.473
  O      668.643     185.659     768.888
  O      668.567     186.335     766.424
  H      673.088     185.645     763.289
  H      668.761     186.623     769.004
  H      667.503     191.414     762.090
  H      670.037     187.634     766.624
  H      670.961     186.809     762.940
  H      672.708     187.997     764.847
  H      668.111     190.595     759.989
  H      671.998     186.498     766.615
  H      669.256     189.304     759.877
  H      672.051     184.285     764.489
  H      670.108     183.435     765.865
  H      671.703     183.306     766.657
  P      674.500     186.188     767.258
  C      672.898     184.799     768.767
  O      673.467     186.065     768.481
  O      674.522     187.749     766.918
  O      675.867     185.651     767.498
  H      675.272     188.189     767.364
  H      673.607     183.988     768.596
  H      672.006     184.653     768.128
  H      672.586     184.783     769.811
  H      667.065     182.366     768.130
  H      666.982     183.914     768.937
  H      668.457     182.978     768.992

 3  4  5  6  7  8  9  10  11  12  23  26  30  31  33  0
 6-311+G(2d,p)
 ****
 35  36  37  38 0
 6-311+G(2d,p)
 ****
 1  2  13  14  15  16  17  18  19  20  21  22  24  25  27  28  29 0
 3-21G
 ****
 32  34  39  40  41  42  43  44  45  46  47  48  49 0
 3-21G
 ****


