%nproc=1
%NoSave
%Mem=1900MB
#P OB98/GEN NMR

erre ene a

0 1
  C       77.822     477.760    -330.587
  O       78.979     477.245    -329.918
  P       80.356     478.059    -330.069
  C       81.167     478.880    -327.739
  O       80.418     479.178    -328.914
  C       80.729     479.767    -326.562
  O       80.945     481.177    -326.878
  C       79.247     479.624    -326.191
  O       79.106     479.868    -324.792
  C       78.602     480.759    -326.955
  O       77.306     481.078    -326.436
  C       79.666     481.843    -326.791
  N       77.915     486.481    -327.724
  C       77.808     485.698    -326.593
  N       77.170     486.255    -325.533
  N       78.283     484.486    -326.491
  C       78.934     484.083    -327.611
  C       79.095     484.755    -328.802
  C       78.536     486.094    -328.897
  O       78.587     486.818    -329.885
  N       79.789     483.997    -329.721
  C       80.027     482.868    -329.088
  N       79.560     482.881    -327.800
  O       80.112     478.915    -331.399
  O       81.562     477.190    -330.191
  H       76.894     481.717    -327.058
  H       80.663     478.555    -332.119
  H       77.515     487.410    -327.743
  H       80.531     482.015    -329.508
  H       79.608     482.342    -325.811
  H       78.488     480.485    -328.016
  H       76.825     487.203    -325.515
  H       78.811     478.653    -326.435
  H       77.112     485.724    -324.682
  H       81.357     479.528    -325.692
  H       82.234     479.022    -327.923
  H       81.041     477.821    -327.499
  P       79.983     478.964    -323.802
  C       81.050     480.956    -322.530
  O       81.253     479.851    -323.390
  O       80.602     477.850    -324.760
  O       79.211     478.366    -322.660
  H       80.815     477.050    -324.255
  H       81.391     480.695    -321.525
  H       80.001     481.263    -322.484
  H       81.648     481.807    -322.893
  H       76.986     477.119    -330.398
  H       78.008     477.802    -331.640
  H       77.607     478.743    -330.223

 3  4  5  6  7  8  9  10  11  12  23  26  30  31 0
 6-311+G(2d,p)
 ****
 33  35  36  37  38 0
 6-311+G(2d,p)
 ****
 1  2  13  14  15  16  17  18  19  20  21  22  24  25 0
 3-21G
 ****
 27  28  29  32  34  39  40  41  42  43  44  45  46  47  48  49 0
 3-21G
 ****


