%nproc=1
%NoSave
%Mem=1900MB
#P OB98/GEN NMR

erre ene a

0 1
  C      354.257    -517.788     148.312
  O      354.725    -517.870     146.981
  H      354.299    -518.785     148.758
  H      353.220    -517.446     148.328
  H      354.884    -517.113     148.903
  P      354.860    -516.521     146.122
  C      356.106    -515.941     143.946
  O      355.420    -516.947     144.678
  C      356.491    -516.452     142.563
  O      357.257    -517.678     142.716
  C      355.292    -516.755     141.659
  O      355.627    -516.380     140.322
  C      355.160    -518.266     141.745
  O      354.542    -518.822     140.587
  C      356.614    -518.699     141.931
  N      357.431    -523.628     141.185
  C      357.489    -522.571     140.299
  N      357.788    -522.870     139.014
  N      357.275    -521.326     140.638
  C      357.002    -521.175     141.961
  C      356.913    -522.138     142.933
  C      357.141    -523.514     142.543
  O      357.089    -524.492     143.276
  N      356.586    -521.585     144.153
  C      356.478    -520.295     143.908
  N      356.711    -519.993     142.590
  O      355.626    -515.417     146.780
  O      353.349    -516.099     145.822
  H      355.106    -518.597     139.817
  H      353.058    -515.393     146.432
  H      357.598    -524.571     140.864
  H      356.231    -519.537     144.641
  H      357.148    -518.790     140.973
  H      354.554    -518.534     142.620
  H      357.982    -523.803     138.683
  H      354.380    -516.244     141.977
  H      357.859    -522.104     138.348
  H      357.161    -515.722     142.099
  H      357.008    -515.666     144.507
  H      355.464    -515.056     143.857
  P      355.470    -514.841     139.891
  C      356.941    -513.332     138.414
  O      356.322    -514.609     138.554
  O      355.697    -513.843     140.978
  O      353.962    -514.779     139.352
  H      353.607    -513.878     139.516
  H      357.478    -513.295     137.489
  H      357.619    -513.173     139.227
  H      356.191    -512.569     138.421

 6  7  8  9  10  11  12  13  14  15  26  29  33  34 0
 6-311+G(2d,p)
 ****
 36  38  39  40  41 0
 6-311+G(2d,p)
 ****
 1  2  3  4  5  16  17  18  19  20  21  22  23  24  25 0
 3-21G
 ****
 27  28  30  31  32  35  37  42  43  44  45  46  47 0
 3-21G
 ****
 48  49 0
 3-21G
 ****


