%nproc=1
%NoSave
%Mem=1900MB
#P OB98/GEN NMR

erre ene a

0 1
  C      136.327    -405.531    -101.672
  O      137.565    -405.563    -100.990
  P      138.152    -404.159    -100.465
  C      138.664    -401.933    -101.709
  O      138.593    -403.354    -101.780
  C      140.078    -401.452    -102.028
  O      140.971    -401.813    -100.959
  C      140.663    -402.071    -103.284
  O      140.141    -401.445    -104.440
  C      142.157    -401.813    -103.076
  O      142.531    -400.511    -103.549
  C      142.299    -401.899    -101.535
  N      142.993    -403.101    -101.099
  C      144.287    -402.907    -100.604
  O      144.778    -401.780    -100.573
  N      145.001    -404.001    -100.191
  C      144.475    -405.191    -100.279
  N      145.235    -406.237     -99.851
  C      143.123    -405.433    -100.814
  C      142.447    -404.356    -101.208
  O      139.541    -404.581     -99.800
  O      137.265    -403.427     -99.519
  H      143.481    -400.411    -103.329
  H      139.804    -403.944     -99.102
  H      142.731    -406.442    -100.867
  H      141.445    -404.453    -101.621
  H      142.853    -401.029    -101.155
  H      142.781    -402.538    -103.610
  H      140.480    -403.148    -103.314
  H      140.058    -400.359    -102.110
  H      146.158    -406.037     -99.492
  H      138.399    -401.612    -100.701
  H      144.902    -407.196     -99.857
  H      137.936    -401.507    -102.414
  P      139.935    -402.351    -105.750
  C      141.427    -403.003    -107.727
  O      141.358    -402.321    -106.489
  O      139.053    -401.396    -106.682
  O      139.316    -403.698    -105.556
  H      138.774    -401.889    -107.481
  H      142.393    -402.777    -108.199
  H      140.627    -402.678    -108.395
  H      141.372    -404.082    -107.567
  H      136.055    -406.524    -101.964
  H      136.415    -404.915    -102.542
  H      135.574    -405.130    -101.026

 3  4  5  6  7  8  9  10  11  12  13  21  23  27  28  29  30  32 0
 6-311+G(2d,p)
 ****
 34  35 0
 6-311+G(2d,p)
 ****
 1  2  14  15  16  17  18  19  20  22  24  25  26 0
 3-21G
 ****
 31  33  36  37  38  39  40  41  42  43  44  45  46 0
 3-21G
 ****


