%nproc=1
%NoSave
%Mem=1900MB
#P OB98/GEN NMR

erre ene a

0 1
  C      -95.811     139.006     -65.116
  O      -96.639     139.228     -63.992
  P      -97.341     140.646     -63.747
  C      -96.248     141.118     -61.477
  O      -96.367     141.530     -62.832
  C      -96.243     142.315     -60.527
  O      -94.995     143.040     -60.670
  C      -97.392     143.307     -60.765
  O      -97.819     143.775     -59.479
  C      -96.723     144.425     -61.542
  O      -97.432     145.652     -61.448
  C      -95.330     144.421     -60.907
  N      -94.334     145.076     -61.743
  C      -94.117     146.437     -61.521
  O      -94.843     147.061     -60.742
  N      -93.093     147.057     -62.197
  C      -92.479     146.419     -63.145
  N      -91.427     147.047     -63.742
  C      -92.854     145.057     -63.574
  C      -93.749     144.435     -62.811
  O      -98.752     140.580     -63.265
  O      -97.259     141.378     -65.171
  H      -98.153     141.675     -65.429
  H      -96.956     146.337     -61.964
  H      -92.398     144.617     -64.449
  H      -94.071     143.423     -63.028
  H      -95.352     144.920     -59.928
  H      -96.663     144.150     -62.602
  H      -98.241     142.858     -61.289
  H      -96.284     141.934     -59.500
  H      -91.171     147.964     -63.394
  H      -95.307     140.575     -61.368
  H      -90.705     146.531     -64.246
  H      -97.062     140.428     -61.226
  P      -99.346     143.513     -59.043
  C     -100.201     145.828     -59.847
  O     -100.284     144.421     -59.970
  O      -99.416     144.286     -57.636
  O      -99.750     142.086     -58.858
  H     -100.122     143.893     -57.092
  H     -100.954     146.279     -60.503
  H      -99.214     146.176     -60.164
  H     -100.397     146.139     -58.821
  H      -95.443     138.002     -65.095
  H      -94.987     139.689     -65.093
  H      -96.376     139.160     -66.011

 3  4  5  6  7  8  9  10  11  12  13  24  27  28  29  30  32 0
 6-311+G(2d,p)
 ****
 34  35 0
 6-311+G(2d,p)
 ****
 1  2  14  15  16  17  18  19  20  21  22  23  25  26 0
 3-21G
 ****
 31  33  36  37  38  39  40  41  42  43  44  45  46 0
 3-21G
 ****


