%nproc=1
%NoSave
%Mem=1900MB
#P OB98/GEN NMR

erre ene a

0 1
  C      169.289     -34.312     172.977
  O      170.100     -33.781     171.950
  H      169.765     -35.215     173.372
  H      168.306     -34.581     172.578
  H      169.179     -33.587     173.788
  P      169.574     -32.445     171.229
  C      169.210     -33.536     168.900
  O      168.607     -32.932     170.037
  C      168.347     -33.317     167.659
  O      169.092     -33.744     166.481
  C      167.022     -34.097     167.673
  O      166.002     -33.284     167.080
  C      167.309     -35.274     166.762
  O      166.117     -35.836     166.213
  C      168.231     -34.619     165.734
  N      168.001     -37.861     161.881
  C      167.055     -36.966     162.360
  N      165.869     -36.928     161.719
  N      167.265     -36.175     163.384
  C      168.506     -36.304     163.915
  C      169.521     -37.151     163.540
  C      169.271     -38.034     162.418
  O      170.057     -38.863     161.963
  N      170.619     -36.999     164.352
  C      170.272     -36.057     165.214
  N      169.000     -35.599     164.983
  O      170.869     -31.907     170.454
  O      168.990     -31.415     172.131
  H      166.381     -36.482     165.523
  H      170.851     -30.931     170.380
  H      167.783     -38.453     161.098
  H      170.893     -35.678     166.017
  H      167.676     -34.020     164.997
  H      167.838     -36.062     167.314
  H      165.648     -37.484     160.900
  H      166.713     -34.407     168.672
  H      165.165     -36.273     162.046
  H      168.167     -32.240     167.543
  H      169.320     -34.614     169.088
  H      170.204     -33.099     168.747
  P      164.658     -33.040     167.927
  C      163.470     -35.295     167.415
  O      164.079     -34.467     168.398
  O      163.613     -32.560     166.809
  O      164.804     -32.019     169.007
  H      163.432     -31.609     166.914
  H      163.135     -36.203     167.871
  H      164.182     -35.522     166.649
  H      162.635     -34.783     166.985

 6  7  8  9  10  11  12  13  14  15  26  29  33  34 0
 6-311+G(2d,p)
 ****
 36  38  39  40  41 0
 6-311+G(2d,p)
 ****
 1  2  3  4  5  16  17  18  19  20  21  22  23  24  25 0
 3-21G
 ****
 27  28  30  31  32  35  37  42  43  44  45  46  47 0
 3-21G
 ****
 48  49 0
 3-21G
 ****


