%nproc=1
%NoSave
%Mem=1900MB
#P OB98/GEN NMR

erre ene a

0 1
  C       94.388    -143.540       9.057
  O       94.740    -144.628       9.885
  H       94.446    -142.621       9.645
  H       93.366    -143.655       8.689
  H       95.081    -143.461       8.215
  P       94.676    -146.110       9.280
  C       92.911    -147.989       9.132
  O       93.216    -146.685       9.617
  C       91.720    -148.573       9.901
  O       92.122    -148.734      11.283
  C       90.487    -147.659       9.858
  O       89.311    -148.332       9.419
  C       90.475    -147.028      11.245
  O       89.200    -146.611      11.686
  C       91.140    -148.094      12.120
  N       91.763    -147.562      13.331
  C       91.177    -147.895      14.549
  O       90.189    -148.610      14.687
  N       91.786    -147.369      15.660
  C       92.880    -146.556      15.670
  O       93.382    -146.118      16.699
  C       93.435    -146.217      14.351
  C       92.860    -146.727      13.260
  O       95.803    -147.010       9.660
  O       94.614    -145.881       7.697
  H       89.329    -146.137      12.535
  H       95.481    -146.097       7.303
  H       91.382    -147.615      16.550
  H       94.295    -145.563      14.321
  H       93.245    -146.499      12.270
  H       90.413    -148.848      12.427
  H       91.114    -146.137      11.225
  H       90.616    -146.867       9.111
  H       91.499    -149.570       9.503
  H       93.798    -148.614       9.273
  H       92.674    -147.938       8.064
  P       88.306    -147.792       8.305
  C       86.380    -146.005       8.211
  O       87.479    -146.568       8.915
  O       87.528    -148.830       7.569
  O       89.275    -147.069       7.237
  H       88.851    -147.181       6.363
  H       85.963    -145.202       8.783
  H       85.634    -146.756       8.054
  H       86.715    -145.633       7.266

 6  7  8  9  10  11  12  13  14  15  16  26  31  32  33  34  35 0
 6-311+G(2d,p)
 ****
 36  37 0
 6-311+G(2d,p)
 ****
 1  2  3  4  5  17  18  19  20  21  22  23  24  25 0
 3-21G
 ****
 27  28  29  30  38  39  40  41  42  43  44  45 0
 3-21G
 ****


