%nproc=1
%NoSave
%Mem=1900MB
#P OB98/GEN NMR

erre ene a

0 1
  C     -117.297    -325.252     -11.350
  O     -118.524    -324.719     -11.808
  H     -117.507    -326.008     -10.590
  H     -116.682    -324.464     -10.907
  H     -116.762    -325.722     -12.179
  P     -118.435    -323.558     -12.912
  C     -120.862    -323.176     -12.135
  O     -119.968    -323.204     -13.240
  C     -122.232    -322.649     -12.568
  O     -122.038    -321.423     -13.317
  C     -123.003    -323.623     -13.461
  O     -124.391    -323.565     -13.129
  C     -122.791    -323.070     -14.859
  O     -123.835    -323.441     -15.756
  C     -122.694    -321.569     -14.588
  N     -122.825    -320.053     -19.457
  C     -123.767    -320.590     -18.652
  N     -123.652    -320.951     -17.356
  C     -122.422    -320.661     -16.891
  C     -121.361    -320.118     -17.591
  C     -121.596    -319.812     -18.943
  N     -120.634    -319.289     -19.777
  N     -120.249    -320.014     -16.778
  C     -120.638    -320.473     -15.603
  N     -121.940    -320.892     -15.628
  O     -117.580    -323.855     -14.097
  O     -117.974    -322.306     -12.029
  H     -123.592    -323.134     -16.654
  H     -118.469    -322.258     -11.190
  H     -124.739    -320.758     -19.109
  H     -120.017    -320.536     -14.717
  H     -123.678    -321.088     -14.532
  H     -121.846    -323.451     -15.265
  H     -122.645    -324.649     -13.370
  H     -122.807    -322.386     -11.674
  H     -120.460    -322.538     -11.340
  H     -120.891    -319.086     -20.731
  H     -119.716    -319.087     -19.408
  H     -120.954    -324.196     -11.750
  P     -125.020    -324.760     -12.267
  C     -127.477    -324.914     -13.041
  O     -126.579    -324.456     -12.035
  O     -124.256    -325.159     -11.049
  O     -125.064    -325.963     -13.329
  H     -124.854    -326.798     -12.868
  H     -128.479    -324.652     -12.771
  H     -127.399    -325.977     -13.132
  H     -127.228    -324.457     -13.976

 6  7  8  9  10  11  12  13  14  15  25  28  32  33  34  35 0
 6-311+G(2d,p)
 ****
 36  39  40 0
 6-311+G(2d,p)
 ****
 1  2  3  4  5  16  17  18  19  20  21  22  23  24 0
 3-21G
 ****
 26  27  29  30  31  37  38  41  42  43  44  45  46  47 0
 3-21G
 ****
 48 0
 3-21G
 ****


