%nproc=1
%NoSave
%Mem=1900MB
#P OB98/GEN NMR

erre ene a

0 1
  C     -183.104      34.650     361.412
  O     -182.025      34.825     360.513
  H     -183.092      33.621     361.778
  H     -184.052      34.831     360.897
  H     -183.007      35.331     362.262
  P     -181.755      36.314     359.989
  C     -179.222      36.451     360.666
  O     -180.549      36.919     360.865
  C     -178.698      35.806     361.948
  O     -179.266      34.496     362.143
  C     -177.200      35.552     361.944
  O     -176.443      36.736     362.051
  C     -177.073      34.627     363.146
  O     -177.102      35.369     364.374
  C     -178.350      33.764     362.999
  N     -178.065      32.433     362.473
  C     -178.096      31.389     363.407
  O     -178.361      31.618     364.588
  N     -177.795      30.119     362.979
  C     -177.519      29.904     361.733
  N     -177.219      28.627     361.377
  C     -177.502      30.972     360.713
  C     -177.777      32.198     361.147
  O     -183.025      37.116     360.535
  O     -181.530      36.440     358.517
  H     -177.055      34.711     365.092
  H     -183.168      37.013     361.493
  H     -177.271      30.744     359.682
  H     -177.784      33.037     360.466
  H     -178.850      33.643     363.972
  H     -176.140      34.067     363.137
  H     -176.913      34.979     361.050
  H     -178.996      36.440     362.794
  H     -177.221      27.923     362.106
  H     -178.564      37.263     360.349
  H     -176.954      28.344     360.444
  H     -179.249      35.712     359.856
  P     -175.468      37.191     360.859
  C     -176.553      39.517     360.660
  O     -176.279      38.281     360.004
  O     -174.886      36.077     360.054
  O     -174.373      38.092     361.607
  H     -174.733      38.871     362.066
  H     -177.094      40.160     359.998
  H     -175.632      39.985     360.938
  H     -177.139      39.333     361.537

 6  7  8  9  10  11  12  13  14  15  16  26  30  31  32  33  35 0
 6-311+G(2d,p)
 ****
 37  38 0
 6-311+G(2d,p)
 ****
 1  2  3  4  5  17  18  19  20  21  22  23  24  25 0
 3-21G
 ****
 27  28  29  34  36  39  40  41  42  43  44  45  46 0
 3-21G
 ****


