%nproc=1
%NoSave
%Mem=1900MB
#P OB98/GEN NMR

erre ene a

0 1
  C      194.613     797.843     -17.545
  O      193.569     797.466     -18.428
  P      192.041     797.505     -17.965
  C      191.949     794.923     -18.426
  O      191.320     796.186     -18.487
  C      191.071     793.893     -19.148
  O      189.834     793.702     -18.434
  C      190.736     794.346     -20.569
  O      191.658     793.795     -21.503
  C      189.317     793.840     -20.746
  O      189.319     792.443     -21.100
  C      188.734     794.034     -19.326
  N      188.239     795.375     -18.955
  C      187.194     795.944     -19.681
  O      186.616     795.379     -20.609
  N      186.833     797.217     -19.304
  C      187.380     797.927     -18.275
  O      187.228     799.130     -18.108
  C      188.274     797.177     -17.391
  C      188.673     795.962     -17.778
  O      191.417     798.658     -18.880
  O      191.820     797.769     -16.512
  H      189.872     791.982     -20.449
  H      191.362     799.500     -18.394
  H      186.171     797.686     -19.916
  H      188.623     797.654     -16.487
  H      189.365     795.405     -17.158
  H      187.924     793.324     -19.133
  H      188.818     794.361     -21.563
  H      190.728     795.440     -20.622
  H      191.600     792.931     -19.173
  H      192.095     794.630     -17.375
  H      192.942     794.972     -18.884
  P      192.512     794.770     -22.436
  C      192.488     793.019     -24.308
  O      193.292     793.805     -23.445
  O      193.361     795.772     -21.712
  O      191.402     795.483     -23.342
  H      191.182     796.363     -22.971
  H      193.127     792.547     -25.059
  H      191.738     793.646     -24.812
  H      191.984     792.237     -23.734
  H      195.554     797.747     -18.044
  H      194.599     797.207     -16.684
  H      194.473     798.859     -17.240

 3  4  5  6  7  8  9  10  11  12  13  23  28  29  30  31  32 0
 6-311+G(2d,p)
 ****
 33  34 0
 6-311+G(2d,p)
 ****
 1  2  14  15  16  17  18  19  20  21  22  24  25  26  27 0
 3-21G
 ****
 35  36  37  38  39  40  41  42  43  44  45 0
 3-21G
 ****


