%nproc=1
%NoSave
%Mem=1900MB
#P OB98/GEN NMR

erre ene a

0 1
  C      -54.328    -216.744    -231.201
  O      -53.522    -217.514    -232.073
  H      -54.088    -215.687    -231.343
  H      -54.125    -217.018    -230.163
  H      -55.387    -216.900    -231.428
  P      -53.755    -219.101    -232.044
  C      -55.692    -219.743    -233.668
  O      -54.304    -219.491    -233.501
  C      -56.118    -219.419    -235.105
  O      -55.332    -218.285    -235.580
  C      -55.881    -220.574    -236.094
  O      -56.873    -220.493    -237.135
  C      -54.523    -220.213    -236.671
  O      -54.286    -220.927    -237.862
  C      -54.689    -218.703    -236.803
  N      -51.789    -216.175    -240.151
  C      -53.039    -216.682    -240.241
  N      -53.749    -217.336    -239.298
  C      -53.045    -217.424    -238.154
  C      -51.762    -216.961    -237.915
  C      -51.118    -216.316    -238.981
  N      -49.836    -215.818    -238.906
  N      -51.371    -217.267    -236.621
  C      -52.399    -217.894    -236.093
  N      -53.434    -218.011    -236.983
  O      -55.036    -219.267    -231.100
  O      -52.599    -219.915    -231.569
  H      -53.520    -220.555    -238.347
  H      -54.751    -219.415    -230.177
  H      -53.538    -216.544    -241.198
  H      -52.452    -218.293    -235.089
  H      -55.343    -218.427    -237.640
  H      -53.720    -220.464    -235.972
  H      -55.920    -221.560    -235.627
  H      -57.169    -219.100    -235.108
  H      -56.248    -219.118    -232.964
  H      -55.899    -220.796    -233.459
  H      -49.440    -215.394    -239.728
  H      -49.310    -215.943    -238.053
  P      -57.460    -221.851    -237.762
  C      -58.929    -223.059    -235.976
  O      -58.882    -222.205    -237.109
  O      -56.500    -222.961    -237.107
  O      -57.407    -221.945    -239.253
  H      -56.211    -223.592    -237.795
  H      -59.946    -223.190    -235.670
  H      -58.369    -222.621    -235.176
  H      -58.507    -224.009    -236.228

 6  7  8  9  10  11  12  13  14  15  25  28  32  33  34  35 0
 6-311+G(2d,p)
 ****
 36  37  40 0
 6-311+G(2d,p)
 ****
 1  2  3  4  5  16  17  18  19  20  21  22  23  24 0
 3-21G
 ****
 26  27  29  30  31  38  39 41  42  43  44  45  46  47  48 0
 3-21G
 ****


