%nproc=1
%NoSave
%Mem=1900MB
#P OB98/GEN NMR

erre ene a

0 1
  C      134.942     -88.890     466.557
  O      133.714     -89.247     467.164
  H      135.497     -88.250     467.248
  H      134.765     -88.337     465.631
  H      135.540     -89.784     466.350
  P      132.670     -90.137     466.331
  C      130.551     -88.835     467.025
  O      131.268     -90.059     467.114
  C      130.569     -88.110     468.383
  O      131.789     -87.326     468.442
  C      129.372     -87.163     468.560
  O      128.648     -87.390     469.773
  C      129.981     -85.778     468.356
  O      129.293     -84.726     469.001
  C      131.436     -85.975     468.808
  N      132.376     -85.014     468.223
  C      132.909     -84.044     469.064
  O      132.669     -83.946     470.266
  N      133.765     -83.155     468.465
  C      134.128     -83.140     467.153
  O      134.909     -82.324     466.668
  C      133.510     -84.179     466.311
  C      132.678     -85.057     466.868
  O      133.123     -91.518     465.993
  O      132.392     -89.269     465.018
  H      129.829     -83.918     468.897
  H      132.891     -89.643     464.261
  H      134.169     -82.457     469.068
  H      133.770     -84.195     465.254
  H      132.201     -85.832     466.278
  H      131.510     -85.882     469.898
  H      129.978     -85.553     467.281
  H      128.614     -87.332     467.783
  H      130.617     -88.858     469.181
  H      129.521     -89.063     466.737
  H      131.005     -88.197     466.257
  P      127.175     -87.993     469.851
  C      126.593     -86.324     471.793
  O      126.568     -87.651     471.295
  O      127.015     -89.396     469.366
  O      126.328     -87.036     468.863
  H      125.635     -87.594     468.451
  H      126.145     -86.299     472.764
  H      126.047     -85.684     471.132
  H      127.606     -85.987     471.859

 6  7  8  9  10  11  12  13  14  15  16  26  31  32  33  34  35 0
 6-311+G(2d,p)
 ****
 36  37 0
 6-311+G(2d,p)
 ****
 1  2  3  4  5  17  18  19  20  21  22  23  24  25 0
 3-21G
 ****
 27  28  29  30  38  39  40  41  42  43  44  45 0
 3-21G
 ****


