%nproc=1
%NoSave
%Mem=1900MB
#P OB98/GEN NMR

erre ene a

0 1
  C      114.726    -260.082    -131.491
  O      113.577    -260.781    -131.062
  H      115.605    -260.716    -131.344
  H      114.856    -259.165    -130.905
  H      114.644    -259.833    -132.555
  P      112.186    -259.985    -131.096
  C      111.102    -262.332    -130.849
  O      111.075    -260.965    -130.478
  C      110.462    -263.175    -129.742
  O      109.129    -262.678    -129.457
  C      110.278    -264.640    -130.104
  O      111.473    -265.389    -129.987
  C      109.226    -265.062    -129.091
  O      109.811    -265.411    -127.831
  C      108.358    -263.787    -128.968
  N      107.087    -263.929    -129.673
  C      105.951    -263.939    -128.871
  O      105.985    -263.832    -127.642
  N      104.758    -264.112    -129.525
  C      104.605    -264.325    -130.863
  O      103.519    -264.534    -131.375
  C      105.842    -264.322    -131.658
  C      107.011    -264.133    -131.034
  O      111.829    -259.936    -132.653
  O      112.226    -258.621    -130.486
  H      111.977    -259.034    -132.995
  H      110.218    -264.586    -127.494
  H      103.926    -264.118    -128.954
  H      105.760    -264.490    -132.727
  H      107.942    -264.136    -131.598
  H      108.144    -263.579    -127.909
  H      108.666    -265.924    -129.445
  H      109.854    -264.733    -131.119
  H      111.070    -263.072    -128.832
  H      112.141    -262.658    -130.984
  H      110.569    -262.458    -131.796
  P      111.587    -266.757    -130.829
  C      114.176    -266.410    -130.476
  O      113.073    -267.304    -130.579
  O      111.611    -266.178    -132.320
  O      110.482    -267.715    -130.546
  H      111.975    -265.275    -132.353
  H      115.074    -266.969    -130.311
  H      114.017    -265.740    -129.657
  H      114.267    -265.850    -131.383

 6  7  8  9  10  11  12  13  14  15  16  27  31  32  33  34  35 0
 6-311+G(2d,p)
 ****
 36  37 0
 6-311+G(2d,p)
 ****
 1  2  3  4  5  17  18  19  20  21  22  23  24  25 0
 3-21G
 ****
 26  28  29  30  38  39  40  41  42  43  44  45 0
 3-21G
 ****


