%nproc=1
%NoSave
%Mem=1900MB
#P OB98/GEN NMR

erre ene a

0 1
  C      733.926     -78.543     248.503
  O      735.329     -78.765     248.511
  P      736.217     -77.886     249.519
  C      738.269     -78.383     248.014
  O      737.482     -77.393     248.664
  C      739.334     -77.730     247.131
  O      738.708     -76.852     246.183
  C      740.331     -76.866     247.889
  O      741.352     -77.645     248.501
  C      740.891     -76.007     246.761
  O      741.917     -76.739     246.064
  C      739.659     -75.803     245.865
  N      740.133     -70.778     245.392
  C      741.029     -71.786     245.073
  N      742.200     -71.403     244.530
  N      740.791     -73.063     245.274
  C      739.563     -73.299     245.790
  C      738.585     -72.385     246.144
  C      738.884     -70.979     245.959
  O      738.158     -70.040     246.289
  N      737.463     -73.009     246.623
  C      737.731     -74.297     246.515
  N      739.011     -74.523     246.047
  O      736.848     -78.987     250.506
  O      735.464     -76.837     250.270
  H      742.181     -76.204     245.300
  H      737.061     -78.579     251.367
  H      740.361     -69.818     245.195
  H      737.051     -75.095     246.770
  H      739.920     -75.920     244.802
  H      741.347     -75.083     247.120
  H      742.386     -70.457     244.230
  H      739.823     -76.226     248.625
  H      742.856     -72.129     244.250
  H      739.856     -78.523     246.577
  H      737.628     -79.010     247.383
  H      738.736     -79.019     248.776
  P      741.709     -77.288     250.030
  C      744.045     -78.316     249.527
  O      743.309     -77.238     250.088
  O      741.331     -78.633     250.816
  O      740.989     -76.088     250.570
  H      741.117     -78.431     251.750
  H      743.560     -78.701     248.630
  H      744.134     -79.113     250.266
  H      745.048     -77.959     249.260
  H      733.466     -79.194     247.789
  H      733.727     -77.525     248.238
  H      733.528     -78.743     249.476

 3  4  5  6  7  8  9  10  11  12  23  26  30  31  33  0
 6-311+G(2d,p)
 ****
 35  36  37  38 0
 6-311+G(2d,p)
 ****
 1  2  13  14  15  16  17  18  19  20  21  22  24  25  27  28  29 0
 3-21G
 ****
 32  34  39  40  41  42  43  44  45  46  47  48  49 0
 3-21G
 ****


