%nproc=1
%NoSave
%Mem=1900MB
#P OB98/GEN NMR

erre ene a

0 1
  C      127.802    -309.883      58.444
  O      127.398    -308.994      59.468
  H      126.911    -310.342      58.010
  H      128.446    -310.670      58.840
  H      128.328    -309.331      57.659
  P      128.527    -308.404      60.443
  C      128.471    -306.267      59.001
  O      129.289    -307.278      59.584
  C      129.304    -305.057      58.579
  O      129.857    -304.389      59.730
  C      130.505    -305.402      57.711
  O      130.190    -305.905      56.433
  C      131.347    -304.140      57.832
  O      130.923    -303.116      56.935
  C      131.061    -303.719      59.294
  N      132.186    -303.996      60.182
  C      133.417    -303.492      59.781
  O      133.590    -302.865      58.741
  N      134.469    -303.760      60.617
  C      134.417    -304.507      61.752
  O      135.402    -304.733      62.447
  C      133.092    -305.049      62.102
  C      132.054    -304.773      61.317
  O      129.444    -309.418      61.062
  O      127.703    -307.545      61.512
  H      131.602    -302.415      56.960
  H      128.254    -307.335      62.305
  H      135.371    -303.391      60.351
  H      133.017    -305.657      62.994
  H      131.066    -305.156      61.555
  H      130.849    -302.642      59.342
  H      132.404    -304.331      57.630
  H      131.071    -306.197      58.214
  H      128.639    -304.348      58.072
  H      127.741    -305.953      59.755
  H      127.938    -306.679      58.141
  P      131.260    -306.541      55.442
  C      130.397    -309.000      55.230
  O      131.375    -308.111      55.754
  O      132.525    -305.772      55.235
  O      130.449    -306.534      54.043
  H      131.104    -306.376      53.334
  H      130.626    -310.000      55.533
  H      130.398    -308.942      54.162
  H      129.431    -308.727      55.601

 6  7  8  9  10  11  12  13  14  15  16  26  31  32  33  34  35 0
 6-311+G(2d,p)
 ****
 36  37 0
 6-311+G(2d,p)
 ****
 1  2  3  4  5  17  18  19  20  21  22  23  24  25 0
 3-21G
 ****
 27  28  29  30  38  39  40  41  42  43  44  45 0
 3-21G
 ****


