%nproc=1
%NoSave
%Mem=1900MB
#P OB98/GEN NMR

erre ene a

0 1
  C     -167.668     616.862    -178.126
  O     -167.729     616.545    -179.499
  H     -167.529     617.943    -178.023
  H     -166.818     616.350    -177.666
  H     -168.589     616.576    -177.611
  P     -168.282     615.106    -179.933
  C     -167.142     615.300    -182.243
  O     -168.357     615.093    -181.539
  C     -167.399     615.886    -183.637
  O     -168.560     615.245    -184.220
  C     -167.725     617.379    -183.531
  O     -167.347     618.094    -184.705
  C     -169.243     617.393    -183.415
  O     -169.823     618.636    -183.792
  C     -169.610     616.220    -184.326
  N     -174.691     616.625    -184.393
  C     -173.735     617.563    -184.728
  N     -174.192     618.776    -185.111
  N     -172.445     617.339    -184.675
  C     -172.133     616.107    -184.201
  C     -172.988     615.101    -183.816
  C     -174.412     615.348    -183.914
  O     -175.308     614.560    -183.613
  N     -172.305     613.998    -183.370
  C     -171.034     614.337    -183.482
  N     -170.882     615.604    -183.995
  O     -169.829     615.150    -179.516
  O     -167.583     613.928    -179.323
  H     -169.756     619.233    -183.030
  H     -170.165     614.250    -179.370
  H     -175.670     616.843    -184.466
  H     -170.196     613.709    -183.218
  H     -169.667     616.549    -185.373
  H     -169.502     617.216    -182.366
  H     -175.161     619.048    -184.998
  H     -167.251     617.844    -182.666
  H     -173.525     619.547    -185.077
  H     -166.555     615.681    -184.295
  H     -166.650     614.325    -182.329
  H     -166.479     615.950    -181.670
  P     -166.176     619.180    -184.564
  C     -167.799     621.213    -184.895
  O     -166.649     620.510    -185.328
  O     -165.007     618.594    -185.488
  O     -165.726     619.403    -183.164
  H     -164.293     618.224    -184.930
  H     -167.953     622.065    -185.523
  H     -167.661     621.535    -183.884
  H     -168.652     620.570    -184.951

 6  7  8  9  10  11  12  13  14  15  26  29  33  34 0
 6-311+G(2d,p)
 ****
 36  38  39  40  41 0
 6-311+G(2d,p)
 ****
 1  2  3  4  5  16  17  18  19  20  21  22  23  24  25 0
 3-21G
 ****
 27  28  30  31  32  35  37  42  43  44  45  46  47 0
 3-21G
 ****
 48  49 0
 3-21G
 ****


