%nproc=1
%NoSave
%Mem=1900MB
#P OB98/GEN NMR

erre ene a

0 1
  C     -898.930     805.081     -25.983
  O     -898.680     806.327     -26.622
  H     -900.000     805.005     -25.764
  H     -898.370     805.023     -25.045
  H     -898.650     804.258     -26.642
  P     -897.150     806.680     -26.940
  C     -896.980     808.524     -25.099
  O     -896.520     807.262     -25.585
  C     -896.280     808.849     -23.796
  O     -896.820     808.029     -22.720
  C     -894.780     808.567     -23.792
  O     -894.040     809.582     -24.448
  C     -894.490     808.513     -22.303
  O     -894.270     809.815     -21.758
  C     -895.770     807.871     -21.734
  N     -895.580     806.467     -21.389
  C     -894.930     806.238     -20.160
  O     -894.580     807.149     -19.412
  N     -894.700     804.944     -19.835
  C     -894.990     803.859     -20.614
  O     -894.700     802.713     -20.302
  C     -895.630     804.154     -21.914
  C     -895.890     805.424     -22.227
  O     -897.270     807.969     -27.881
  O     -896.370     805.587     -27.584
  H     -897.060     807.728     -28.804
  H     -893.980     809.682     -20.823
  H     -894.250     804.761     -18.951
  H     -895.870     803.317     -22.564
  H     -896.350     805.666     -23.182
  H     -896.110     808.407     -20.843
  H     -893.590     807.917     -22.101
  H     -894.580     807.586     -24.237
  H     -896.480     809.906     -23.538
  H     -898.050     808.483     -24.926
  H     -896.760     809.280     -25.864
  P     -892.470     809.302     -24.727
  C     -891.720     811.292     -23.147
  O     -891.710     809.890     -23.434
  O     -892.170     810.359     -25.878
  O     -892.180     807.876     -25.054
  H     -892.780     811.112     -25.845
  H     -891.163     811.477     -22.252
  H     -892.729     811.622     -23.013
  H     -891.275     811.826     -23.961

 6  7  8  9  10  11  12  13  14  15  16  27  31  32  33  34  35 0
 6-311+G(2d,p)
 ****
 36  37 0
 6-311+G(2d,p)
 ****
 1  2  3  4  5  17  18  19  20  21  22  23  24  25 0
 3-21G
 ****
 26  28  29  30  38  39  40  41  42  43  44  45 0
 3-21G
 ****


