%nproc=1
%NoSave
%Mem=1900MB
#P OB98/GEN NMR

erre ene a

0 1
  C     -856.855      26.093    -241.059
  O     -857.944      25.185    -241.212
  P     -858.201      24.016    -240.131
  C     -857.440      21.557    -239.884
  O     -857.397      22.739    -240.671
  C     -856.606      20.437    -240.534
  O     -857.195      20.108    -241.820
  C     -855.136      20.831    -240.820
  O     -854.349      19.676    -240.626
  C     -855.156      21.251    -242.267
  O     -853.874      21.178    -242.866
  C     -856.185      20.271    -242.825
  N     -856.768      20.699    -244.087
  C     -856.128      20.303    -245.268
  O     -855.096      19.629    -245.244
  N     -856.665      20.694    -246.475
  C     -857.710      21.474    -246.502
  N     -858.246      21.773    -247.733
  C     -858.347      21.994    -245.276
  C     -857.839      21.571    -244.132
  O     -859.655      23.771    -239.821
  O     -857.338      24.468    -238.844
  H     -853.603      20.237    -242.915
  H     -857.808      25.093    -238.269
  H     -859.200      22.676    -245.355
  H     -858.257      21.887    -243.178
  H     -855.723      19.262    -242.962
  H     -855.521      22.297    -242.365
  H     -854.778      21.631    -240.126
  H     -856.657      19.555    -239.897
  H     -857.886      21.238    -248.511
  H     -858.489      21.216    -239.819
  H     -859.216      22.086    -247.816
  H     -857.108      21.760    -238.861
  P     -852.778      19.843    -240.235
  C     -850.679      20.736    -241.485
  O     -852.098      20.731    -241.381
  O     -852.206      18.364    -240.556
  O     -852.474      20.209    -238.830
  H     -851.417      18.226    -240.007
  H     -850.392      21.406    -242.318
  H     -850.295      19.749    -241.680
  H     -850.247      21.144    -240.549
  H     -856.854      26.789    -241.872
  H     -855.934      25.548    -241.055
  H     -856.960      26.623    -240.136

 3  4  5  6  7  8  9  10  11  12  13  23  27  28  29  30  32 0
 6-311+G(2d,p)
 ****
 34  35 0
 6-311+G(2d,p)
 ****
 1  2  14  15  16  17  18  19  20  21  22  24  25  26 0
 3-21G
 ****
 31  33  36  37  38  39  40  41  42  43  44  45  46 0
 3-21G
 ****


