%nproc=1
%NoSave
%Mem=1900MB
#P OB98/GEN NMR

erre ene a

0 1
  C     -216.542     254.714     -20.050
  O     -216.892     254.468     -21.404
  P     -215.773     254.144     -22.516
  C     -214.023     255.682     -23.647
  O     -214.758     255.386     -22.469
  C     -212.613     256.168     -23.285
  O     -211.882     255.063     -22.695
  C     -211.796     256.677     -24.487
  O     -210.981     257.754     -24.010
  C     -210.940     255.478     -24.849
  O     -209.784     255.834     -25.578
  C     -210.663     254.890     -23.461
  N     -210.283     253.482     -23.514
  C     -208.923     253.188     -23.580
  O     -208.072     254.080     -23.618
  N     -208.534     251.864     -23.603
  C     -209.429     250.928     -23.647
  N     -208.998     249.635     -23.608
  C     -210.884     251.205     -23.693
  C     -211.231     252.486     -23.597
  O     -216.310     253.834     -23.871
  O     -214.897     252.974     -21.874
  H     -209.214     255.046     -25.659
  H     -215.282     252.076     -22.031
  H     -211.589     250.392     -23.752
  H     -212.273     252.779     -23.595
  H     -209.886     255.467     -22.951
  H     -211.526     254.780     -25.457
  H     -212.425     257.033     -25.306
  H     -212.702     256.946     -22.523
  H     -208.013     249.490     -23.406
  H     -214.545     256.479     -24.182
  H     -209.614     248.888     -23.322
  H     -213.984     254.797     -24.289
  P     -210.759     259.024     -24.975
  C     -209.107     259.628     -26.886
  O     -209.709     258.610     -26.110
  O     -209.881     259.994     -24.043
  O     -211.996     259.740     -25.422
  H     -210.012     260.917     -24.329
  H     -208.421     259.163     -27.602
  H     -208.538     260.308     -26.251
  H     -209.872     260.185     -27.446
  H     -217.428     254.907     -19.482
  H     -215.893     255.563     -19.998
  H     -216.041     253.857     -19.650

 3  4  5  6  7  8  9  10  11  12  13  23  27  28  29  30  32 0
 6-311+G(2d,p)
 ****
 34  35 0
 6-311+G(2d,p)
 ****
 1  2  14  15  16  17  18  19  20  21  22  24  25  26 0
 3-21G
 ****
 31  33  36  37  38  39  40  41  42  43  44  45  46 0
 3-21G
 ****


