%nproc=1
%NoSave
%Mem=1900MB
#P OB98/GEN NMR

erre ene a

0 1
  C     -238.753    -800.554    -218.325
  O     -237.990    -799.360    -218.281
  H     -239.650    -800.411    -217.719
  H     -238.171    -801.376    -217.900
  H     -239.048    -800.795    -219.345
  P     -236.788    -799.176    -219.326
  C     -238.327    -798.364    -221.238
  O     -237.410    -799.357    -220.797
  C     -237.632    -797.349    -222.154
  O     -237.121    -798.039    -223.319
  C     -238.612    -796.282    -222.655
  O     -237.958    -795.043    -222.934
  C     -239.121    -796.879    -223.959
  O     -239.640    -795.899    -224.863
  C     -237.879    -797.598    -224.472
  N     -239.658    -799.203    -228.970
  C     -239.702    -797.937    -228.417
  N     -240.307    -796.974    -229.162
  N     -239.231    -797.651    -227.231
  C     -238.730    -798.728    -226.569
  C     -238.649    -800.029    -227.012
  C     -239.145    -800.326    -228.338
  O     -239.147    -801.434    -228.872
  N     -238.081    -800.842    -226.058
  C     -237.824    -800.031    -225.052
  N     -238.177    -798.735    -225.321
  O     -235.925    -800.519    -219.150
  O     -235.949    -797.949    -219.133
  H     -240.032    -796.383    -225.616
  H     -235.015    -800.374    -219.462
  H     -240.010    -799.360    -229.899
  H     -237.378    -800.339    -224.107
  H     -237.242    -796.914    -225.046
  H     -239.944    -797.566    -223.722
  H     -240.846    -797.198    -229.982
  H     -239.436    -796.102    -221.960
  H     -240.616    -796.140    -228.651
  H     -236.764    -796.914    -221.634
  H     -238.719    -797.871    -220.342
  H     -239.173    -798.831    -221.751
  P     -238.184    -793.813    -221.929
  C     -236.182    -794.204    -220.240
  O     -237.570    -794.165    -220.502
  O     -239.757    -793.808    -221.675
  O     -237.699    -792.489    -222.453
  H     -240.160    -792.989    -222.033
  H     -236.020    -794.463    -219.214
  H     -235.755    -793.243    -220.437
  H     -235.721    -794.936    -220.870

 6  7  8  9  10  11  12  13  14  15  26  29  33  34 0
 6-311+G(2d,p)
 ****
 36  38  39  40  41 0
 6-311+G(2d,p)
 ****
 1  2  3  4  5  16  17  18  19  20  21  22  23  24  25 0
 3-21G
 ****
 27  28  30  31  32  35  37  42  43  44  45  46  47 0
 3-21G
 ****
 48  49 0
 3-21G
 ****


