%nproc=1
%NoSave
%Mem=1900MB
#P OB98/GEN NMR

erre ene a

0 1
  C      -43.579      62.014     -93.528
  O      -43.715      62.549     -94.825
  H      -42.533      62.111     -93.222
  H      -43.845      60.955     -93.515
  H      -44.202      62.566     -92.819
  P      -45.111      62.365     -95.599
  C      -45.466      64.189     -97.368
  O      -44.840      62.944     -97.080
  C      -44.725      65.354     -96.711
  O      -43.346      65.372     -97.164
  C      -45.331      66.728     -97.020
  O      -45.439      67.484     -95.811
  C      -44.316      67.368     -97.955
  O      -44.384      68.790     -97.933
  C      -43.012      66.745     -97.444
  N      -41.917      66.850     -98.401
  C      -41.331      68.111     -98.543
  O      -41.766      69.073     -97.905
  N      -40.296      68.266     -99.428
  C      -39.912      67.262    -100.151
  N      -38.887      67.483    -101.018
  C      -40.533      65.924    -100.069
  C      -41.514      65.789     -99.178
  O      -46.293      62.952     -94.904
  O      -45.229      60.789     -95.846
  H      -43.702      69.144     -98.545
  H      -46.174      60.555     -96.023
  H      -40.185      65.121    -100.701
  H      -42.022      64.840     -99.043
  H      -42.697      67.219     -96.504
  H      -44.507      67.036     -98.984
  H      -46.315      66.672     -97.479
  H      -44.687      65.171     -95.630
  H      -38.488      68.413    -101.042
  H      -46.502      64.150     -97.016
  H      -38.510      66.777    -101.633
  H      -45.460      64.332     -98.455
  P      -46.887      67.508     -95.120
  C      -46.312      67.617     -92.597
  O      -46.762      68.324     -93.742
  O      -47.093      65.992     -94.652
  O      -47.979      67.962     -96.033
  H      -47.669      65.521     -95.283
  H      -46.278      68.281     -91.759
  H      -45.334      67.225     -92.782
  H      -46.985      66.812     -92.387

 6  7  8  9  10  11  12  13  14  15  16  26  30  31  32  33  35 0
 6-311+G(2d,p)
 ****
 37  38 0
 6-311+G(2d,p)
 ****
 1  2  3  4  5  17  18  19  20  21  22  23  24  25 0
 3-21G
 ****
 27  28  29  34  36  39  40  41  42  43  44  45  46 0
 3-21G
 ****


