%nproc=1
%NoSave
%Mem=1900MB
#P OB98/GEN NMR

erre ene a

0 1
  C      -93.908     465.477     359.890
  O      -92.829     464.706     360.376
  H      -94.841     464.947     360.107
  H      -93.833     465.601     358.808
  H      -93.936     466.455     360.379
  P      -91.329     465.227     360.152
  C      -90.740     463.747     358.137
  O      -90.535     463.970     359.526
  C      -91.268     462.336     357.879
  O      -92.495     462.129     358.633
  C      -91.584     462.053     356.403
  O      -91.033     460.788     356.021
  C      -93.102     461.976     356.366
  O      -93.599     461.206     355.275
  C      -93.393     461.414     357.765
  N      -94.792     461.591     358.147
  C      -95.736     460.973     357.320
  O      -95.372     460.316     356.344
  N      -97.068     461.152     357.588
  C      -97.429     461.932     358.565
  N      -98.767     462.089     358.761
  C      -96.463     462.625     359.444
  C      -95.175     462.415     359.180
  O      -90.693     465.838     361.356
  O      -91.423     466.233     358.911
  H      -93.196     460.308     355.323
  H      -90.652     466.846     358.936
  H      -96.817     463.263     360.241
  H      -94.390     462.887     359.771
  H      -93.148     460.347     357.822
  H      -93.516     462.988     356.278
  H      -91.207     462.819     355.727
  H      -90.541     461.613     358.273
  H      -99.389     461.595     358.130
  H      -89.790     463.901     357.613
  H      -99.162     462.683     359.469
  H      -91.472     464.476     357.772
  P      -90.095     460.781     354.716
  C      -91.033     458.493     353.927
  O      -89.881     459.255     354.266
  O      -88.667     461.222     355.283
  O      -90.572     461.704     353.641
  H      -88.447     462.122     354.968
  H      -90.737     457.503     353.649
  H      -91.539     458.957     353.106
  H      -91.690     458.445     354.770

 6  7  8  9  10  11  12  13  14  15  16  26  30  31  32  33  35 0
 6-311+G(2d,p)
 ****
 37  38 0
 6-311+G(2d,p)
 ****
 1  2  3  4  5  17  18  19  20  21  22  23  24  25 0
 3-21G
 ****
 27  28  29  34  36  39  40  41  42  43  44  45  46 0
 3-21G
 ****


