%nproc=1
%NoSave
%Mem=1900MB
#P OB98/GEN NMR

erre ene a

0 1
  C        4.835     -63.797     -32.631
  O        5.755     -64.872     -32.542
  P        5.555     -65.935     -31.354
  C        6.186     -66.003     -28.827
  O        6.092     -65.234     -30.015
  C        5.890     -65.136     -27.602
  O        4.657     -64.409     -27.837
  C        5.715     -65.913     -26.292
  O        6.195     -65.069     -25.238
  C        4.209     -66.061     -26.181
  O        3.779     -66.312     -24.847
  C        3.751     -64.727     -26.758
  N       -1.031     -63.282     -25.972
  C        0.089     -63.106     -25.179
  N       -0.086     -62.392     -24.047
  N        1.270     -63.584     -25.471
  C        1.293     -64.262     -26.643
  C        0.248     -64.537     -27.493
  C       -1.043     -63.971     -27.178
  O       -2.040     -64.028     -27.893
  N        0.644     -65.330     -28.536
  C        1.943     -65.466     -28.360
  N        2.390     -64.799     -27.252
  O        6.665     -67.039     -31.675
  O        4.183     -66.518     -31.230
  H        2.809     -66.186     -24.817
  H        6.290     -67.773     -32.200
  H       -1.910     -62.874     -25.704
  H        2.605     -66.027     -29.000
  H        3.795     -63.913     -26.023
  H        3.873     -66.897     -26.805
  H       -0.960     -61.969     -23.776
  H        6.237     -66.874     -26.280
  H        0.725     -62.220     -23.465
  H        6.692     -64.395     -27.503
  H        7.204     -66.395     -28.740
  H        5.494     -66.849     -28.882
  P        7.725     -65.227     -24.790
  C        9.071     -66.938     -23.388
  O        7.882     -66.661     -24.100
  O        7.839     -64.211     -23.554
  O        8.726     -64.892     -25.846
  H        8.740     -63.838     -23.520
  H        8.874     -67.739     -22.671
  H        9.429     -66.060     -22.843
  H        9.843     -67.271     -24.085
  H        5.092     -63.176     -33.464
  H        4.873     -63.220     -31.731
  H        3.846     -64.184     -32.766

 3  4  5  6  7  8  9  10  11  12  23  26  30  31 0
 6-311+G(2d,p)
 ****
 33  35  36  37  38 0
 6-311+G(2d,p)
 ****
 1  2  13  14  15  16  17  18  19  20  21  22  24  25 0
 3-21G
 ****
 27  28  29  32  34  39  40  41  42  43  44  45  46  47  48  49 0
 3-21G
 ****


