%nproc=1
%NoSave
%Mem=1900MB
#P OB98/GEN NMR

erre ene a

0 1
  C      476.151     465.482     937.184
  O      476.221     464.077     937.065
  H      475.160     465.841     936.893
  H      476.332     465.757     938.224
  H      476.917     465.948     936.557
  P      475.875     463.466     935.620
  C      478.256     464.217     934.924
  O      476.882     464.162     934.579
  C      479.113     464.192     933.664
  O      478.932     462.946     932.963
  C      478.785     465.280     932.649
  O      479.345     466.535     933.012
  C      479.452     464.711     931.399
  O      480.865     464.984     931.434
  C      479.207     463.199     931.555
  N      477.829     460.853     927.195
  C      479.042     461.206     927.689
  N      479.331     461.831     928.846
  C      478.212     462.093     929.545
  C      476.910     461.801     929.167
  C      476.735     461.151     927.933
  N      475.492     460.816     927.433
  N      476.016     462.207     930.141
  C      476.770     462.736     931.089
  N      478.100     462.701     930.766
  O      474.458     464.129     935.264
  O      475.812     461.975     935.554
  H      481.235     464.459     932.170
  H      473.922     463.480     934.772
  H      479.893     460.935     927.073
  H      476.391     463.153     932.011
  H      480.099     462.619     931.297
  H      479.056     465.130     930.473
  H      477.706     465.355     932.479
  H      480.169     464.252     933.968
  H      478.509     463.354     935.547
  H      475.446     460.186     926.647
  H      474.678     461.034     927.995
  H      478.441     465.132     935.494
  P      478.708     467.848     932.343
  C      477.044     468.058     934.325
  O      477.207     467.941     932.914
  O      478.494     467.418     930.821
  O      479.533     469.084     932.463
  H      478.490     468.205     930.247
  H      476.002     468.110     934.561
  H      477.532     468.946     934.668
  H      477.476     467.206     934.806

 6  7  8  9  10  11  12  13  14  15  25  28  32  33  34  35 0
 6-311+G(2d,p)
 ****
 36  39  40 0
 6-311+G(2d,p)
 ****
 1  2  3  4  5  16  17  18  19  20  21  22  23  24 0
 3-21G
 ****
 26  27  29  30  31  37  38  41  42  43  44  45  46  47  48 0
 3-21G
 ****


