%nproc=1
%NoSave
%Mem=1900MB
#P OB98/GEN NMR

erre ene a

0 1
  C      227.506      -9.858    -188.195
  O      227.514     -11.265    -188.332
  H      227.745      -9.408    -189.163
  H      228.257      -9.542    -187.464
  H      226.514      -9.518    -187.881
  P      227.288     -12.126    -186.997
  C      228.629     -12.544    -184.808
  O      228.610     -11.958    -186.105
  C      229.801     -11.980    -184.010
  O      231.050     -12.443    -184.581
  C      229.889     -10.459    -184.026
  O      228.982      -9.848    -183.123
  C      231.339     -10.252    -183.619
  O      231.499     -10.278    -182.195
  C      232.051     -11.446    -184.282
  N      232.793     -11.040    -185.475
  C      234.015     -10.414    -185.236
  O      234.463     -10.210    -184.110
  N      234.698      -9.994    -186.348
  C      234.258     -10.088    -187.639
  O      234.895      -9.640    -188.585
  C      232.955     -10.743    -187.828
  C      232.287     -11.179    -186.752
  O      227.368     -13.636    -187.520
  O      226.009     -11.850    -186.279
  H      226.476     -14.030    -187.533
  H      231.144      -9.428    -181.866
  H      235.583      -9.542    -186.199
  H      232.576     -10.834    -188.838
  H      231.317     -11.655    -186.865
  H      232.754     -11.910    -183.582
  H      231.707      -9.288    -183.968
  H      229.748     -10.081    -185.046
  H      229.734     -12.353    -182.979
  H      228.747     -13.629    -184.895
  H      227.676     -12.333    -184.308
  P      228.398      -8.405    -183.513
  C      229.497      -6.033    -183.821
  O      229.659      -7.416    -183.542
  O      227.617      -8.032    -182.167
  O      227.561      -8.426    -184.748
  H      228.008      -8.469    -181.389
  H      230.451      -5.549    -183.793
  H      228.853      -5.594    -183.087
  H      229.064      -5.913    -184.792

 6  7  8  9  10  11  12  13  14  15  16  27  31  32  33  34  35 0
 6-311+G(2d,p)
 ****
 36  37 0
 6-311+G(2d,p)
 ****
 1  2  3  4  5  17  18  19  20  21  22  23  24  25 0
 3-21G
 ****
 26  28  29  30  38  39  40  41  42  43  44  45 0
 3-21G
 ****


