%nproc=1
%NoSave
%Mem=1900MB
#P OB98/GEN NMR

erre ene a

0 1
  C     -138.521    -163.389     363.727
  O     -138.563    -162.304     362.821
  H     -137.600    -163.320     364.313
  H     -138.515    -164.330     363.172
  H     -139.376    -163.360     364.407
  P     -139.967    -162.020     362.096
  C     -141.056    -159.873     363.061
  O     -140.894    -161.277     363.176
  C     -142.244    -159.549     362.160
  O     -141.975    -159.964     360.804
  C     -143.546    -160.232     362.568
  O     -144.217    -159.509     363.592
  C     -144.317    -160.169     361.259
  O     -144.839    -158.837     361.064
  C     -143.218    -160.457     360.228
  N     -144.434    -164.123     356.944
  C     -144.847    -162.807     356.993
  N     -145.718    -162.413     356.039
  N     -144.453    -161.953     357.900
  C     -143.603    -162.493     358.807
  C     -143.126    -163.781     358.867
  C     -143.559    -164.710     357.848
  O     -143.211    -165.884     357.752
  N     -142.282    -163.960     359.930
  C     -142.266    -162.784     360.528
  N     -143.055    -161.861     359.888
  O     -140.608    -163.485     361.984
  O     -139.870    -161.368     360.759
  H     -145.562    -158.718     361.705
  H     -140.501    -163.807     361.070
  H     -144.778    -164.741     356.229
  H     -141.700    -162.549     361.419
  H     -143.379    -159.919     359.289
  H     -145.171    -160.849     361.242
  H     -146.080    -163.025     355.324
  H     -143.384    -161.279     362.850
  H     -146.031    -161.452     356.056
  H     -142.368    -158.458     362.148
  H     -140.145    -159.439     362.633
  H     -141.218    -159.451     364.059
  P     -144.742    -160.319     364.873
  C     -143.922    -158.585     366.616
  O     -143.798    -159.904     366.105
  O     -144.294    -161.822     364.547
  O     -146.207    -160.230     365.124
  H     -145.080    -162.374     364.379
  H     -143.238    -158.451     367.427
  H     -144.922    -158.430     366.964
  H     -143.700    -157.880     365.842

 6  7  8  9  10  11  12  13  14  15  26  29  33  34 0
 6-311+G(2d,p)
 ****
 36  38  39  40  41 0
 6-311+G(2d,p)
 ****
 1  2  3  4  5  16  17  18  19  20  21  22  23  24  25 0
 3-21G
 ****
 27  28  30  31  32  35  37  42  43  44  45  46  47 0
 3-21G
 ****
 48  49 0
 3-21G
 ****


