%nproc=1
%NoSave
%Mem=1900MB
#P OB98/GEN NMR

erre ene a

0 1
  C      291.803     225.682      37.652
  O      290.954     226.816      37.848
  P      289.783     227.198      36.797
  C      290.735     229.127      35.394
  O      290.418     227.742      35.423
  C      290.710     229.732      33.987
  O      291.693     229.087      33.125
  C      289.360     229.619      33.255
  O      289.274     230.769      32.405
  C      289.540     228.359      32.427
  O      288.615     228.245      31.356
  C      290.992     228.508      32.005
  N      290.638     224.469      28.856
  C      290.005     225.657      28.873
  N      290.178     226.694      29.718
  C      291.153     226.439      30.595
  C      291.907     225.281      30.702
  C      291.614     224.250      29.781
  N      292.231     223.017      29.801
  N      292.809     225.366      31.754
  C      292.583     226.554      32.277
  N      291.604     227.246      31.614
  O      288.723     228.073      37.369
  O      289.164     225.779      36.382
  H      287.710     228.352      31.732
  H      288.189     225.842      36.401
  H      289.240     225.788      28.102
  H      293.091     226.959      33.146
  H      291.085     229.202      31.161
  H      289.398     227.477      33.084
  H      288.502     229.568      33.942
  H      291.010     230.786      34.066
  H      291.743     229.278      35.828
  H      291.887     222.317      29.161
  H      292.858     222.791      30.553
  H      290.020     229.664      36.034
  P      288.455     232.082      32.828
  C      286.339     231.300      31.606
  O      286.907     231.669      32.865
  O      288.768     233.304      32.022
  O      288.807     232.290      34.382
  H      288.612     233.207      34.642
  H      286.154     232.200      30.999
  H      285.388     230.769      31.782
  H      287.011     230.628      31.067
  H      292.502     225.616      38.460
  H      292.334     225.789      36.729
  H      291.209     224.793      37.621

 3  4  5  6  7  8  9  10  11  12  22  25  29  30  31  32 0
 6-311+G(2d,p)
 ****
 33  36  37 0
 6-311+G(2d,p)
 ****
 1  2  13  14  15  16  17  18  19  20  21  23  24  26 0
 3-21G
 ****
 27  28  34  35  38  39  40  41  42  43  44  45  46  47  48 0
 3-21G
 ****


