%nproc=1
%NoSave
%Mem=1900MB
#P OB98/GEN NMR

erre ene a

0 1
  C       66.234    -313.637    -112.736
  O       67.462    -314.206    -113.140
  H       66.400    -312.588    -112.474
  H       65.847    -314.162    -111.858
  H       65.503    -313.686    -113.549
  P       67.421    -315.715    -113.680
  C       68.055    -316.713    -111.357
  O       67.102    -316.642    -112.406
  C       67.769    -317.928    -110.475
  O       68.774    -317.987    -109.428
  C       66.396    -317.874    -109.791
  O       65.851    -319.193    -109.729
  C       66.724    -317.385    -108.388
  O       65.750    -317.733    -107.416
  C       68.087    -318.054    -108.161
  N       68.864    -317.398    -107.113
  C       69.079    -318.107    -105.937
  O       68.727    -319.270    -105.742
  N       69.734    -317.422    -104.945
  C       70.164    -316.130    -105.008
  O       70.727    -315.560    -104.076
  C       69.896    -315.430    -106.272
  C       69.270    -316.086    -107.252
  O       68.961    -316.041    -113.987
  O       66.541    -315.960    -114.857
  H       69.181    -315.808    -114.911
  H       66.174    -317.687    -106.535
  H       69.900    -317.921    -104.082
  H       70.216    -314.398    -106.352
  H       69.050    -315.595    -108.192
  H       67.951    -319.114    -107.916
  H       66.829    -316.294    -108.387
  H       65.696    -317.206    -110.298
  H       67.874    -318.843    -111.078
  H       67.988    -315.803    -110.752
  H       69.062    -316.784    -111.787
  P       64.699    -319.566    -110.786
  C       62.784    -319.784    -109.018
  O       63.320    -319.076    -110.125
  O       64.658    -321.158    -110.662
  O       64.978    -319.041    -112.159
  H       64.803    -321.481    -109.755
  H       61.869    -319.323    -108.709
  H       63.484    -319.765    -108.209
  H       62.594    -320.798    -109.301

 6  7  8  9  10  11  12  13  14  15  16  27  31  32  33  34  35 0
 6-311+G(2d,p)
 ****
 36  37 0
 6-311+G(2d,p)
 ****
 1  2  3  4  5  17  18  19  20  21  22  23  24  25 0
 3-21G
 ****
 26  28  29  30  38  39  40  41  42  43  44  45 0
 3-21G
 ****


