%nproc=1
%NoSave
%Mem=1900MB
#P OB98/GEN NMR

erre ene a

0 1
  C     -100.500    -404.185      12.666
  O     -100.496    -405.496      13.197
  H     -101.511    -403.942      12.324
  H      -99.821    -404.148      11.806
  H     -100.192    -403.456      13.414
  P      -99.243    -405.916      14.107
  C     -100.793    -406.833      15.975
  O      -99.746    -407.112      15.058
  C     -100.356    -407.187      17.399
  O      -99.993    -408.600      17.434
  C      -99.154    -406.381      17.910
  O      -99.333    -406.111      19.309
  C      -98.002    -407.359      17.755
  O      -96.913    -407.055      18.619
  C      -98.706    -408.671      18.080
  N      -94.916    -411.708      19.361
  C      -95.604    -410.768      20.104
  N      -95.190    -410.566      21.369
  N      -96.625    -410.092      19.644
  C      -96.954    -410.413      18.369
  C      -96.346    -411.309      17.525
  C      -95.209    -412.047      18.039
  O      -94.544    -412.870      17.426
  N      -96.940    -411.302      16.287
  C      -97.881    -410.380      16.375
  N      -97.931    -409.811      17.621
  O      -99.097    -404.673      15.106
  O      -97.975    -406.185      13.365
  H      -97.252    -406.996      19.532
  H      -98.440    -404.041      14.755
  H      -94.131    -412.194      19.761
  H      -98.537    -410.077      15.571
  H      -98.867    -408.809      19.160
  H      -97.643    -407.346      16.721
  H      -94.438    -411.069      21.812
  H      -98.994    -405.440      17.369
  H      -95.710    -409.912      21.944
  H     -101.225    -407.059      18.068
  H     -101.669    -407.438      15.709
  H     -101.061    -405.778      15.916
  P      -99.787    -404.636      19.747
  C     -101.641    -405.563      21.317
  O     -100.507    -404.722      21.178
  O     -100.998    -404.321      18.744
  O      -98.700    -403.612      19.632
  H     -101.003    -403.367      18.520
  H     -102.003    -405.511      22.323
  H     -101.367    -406.572      21.089
  H     -102.408    -405.241      20.645

 6  7  8  9  10  11  12  13  14  15  26  29  33  34 0
 6-311+G(2d,p)
 ****
 36  38  39  40  41 0
 6-311+G(2d,p)
 ****
 1  2  3  4  5  16  17  18  19  20  21  22  23  24  25 0
 3-21G
 ****
 27  28  30  31  32  35  37  42  43  44  45  46  47 0
 3-21G
 ****
 48  49 0
 3-21G
 ****


