%nproc=1
%NoSave
%Mem=1900MB
#P OB98/GEN NMR

erre ene a

0 1
  C      107.688    -342.259     104.773
  O      106.931    -343.162     105.587
  P      107.481    -344.645     105.838
  C      106.375    -345.975     103.940
  O      107.581    -345.424     104.444
  C      106.651    -346.936     102.765
  O      107.640    -347.928     103.173
  C      105.389    -347.679     102.284
  O      105.189    -347.605     100.862
  C      105.584    -349.088     102.841
  O      104.856    -350.072     102.119
  C      107.109    -349.242     102.870
  N      107.551    -350.243     103.847
  C      107.295    -351.569     103.529
  O      106.673    -351.924     102.532
  N      107.730    -352.489     104.452
  C      108.307    -352.220     105.654
  O      108.640    -353.082     106.454
  C      108.492    -350.794     105.970
  C      108.114    -349.879     105.064
  O      106.813    -345.395     106.941
  O      109.025    -344.380     106.205
  H      105.011    -350.957     102.546
  H      109.288    -345.014     106.915
  H      107.574    -353.468     104.214
  H      108.918    -350.543     106.912
  H      108.220    -348.832     105.266
  H      107.489    -349.542     101.891
  H      105.214    -349.105     103.870
  H      104.474    -347.251     102.712
  H      107.072    -346.338     101.954
  H      105.716    -345.171     103.586
  H      105.829    -346.496     104.747
  P      103.936    -346.874     100.185
  C      102.320    -348.602     101.238
  O      102.618    -347.235     101.012
  O      103.821    -347.052      98.708
  O      104.185    -345.330     100.531
  H      103.950    -344.767      99.758
  H      101.251    -348.694     101.464
  H      102.909    -348.967     102.097
  H      102.546    -349.223     100.352
  H      107.178    -341.320     104.712
  H      107.797    -342.670     103.791
  H      108.655    -342.112     105.207

 3  4  5  6  7  8  9  10  11  12  13  23  28  29  30  31  32 0
 6-311+G(2d,p)
 ****
 33  34 0
 6-311+G(2d,p)
 ****
 1  2  14  15  16  17  18  19  20  21  22  24  25  26  27 0
 3-21G
 ****
 35  36  37  38  39  40  41  42  43  44  45 0
 3-21G
 ****


