%nproc=1
%NoSave
%Mem=1900MB
#P OB98/GEN NMR

erre ene a

0 1
  C     -392.784    -488.454    -336.576
  O     -393.636    -487.778    -337.481
  H     -391.747    -488.333    -336.905
  H     -393.011    -489.528    -336.552
  H     -392.885    -488.034    -335.574
  P     -395.219    -487.944    -337.301
  C     -395.422    -485.491    -336.506
  O     -395.637    -486.861    -336.198
  C     -396.760    -484.767    -336.635
  O     -397.523    -484.902    -335.423
  C     -396.603    -483.266    -336.871
  O     -396.224    -482.997    -338.203
  C     -397.987    -482.779    -336.470
  O     -398.936    -482.975    -337.524
  C     -398.301    -483.693    -335.265
  N     -398.012    -483.050    -333.976
  C     -398.957    -482.119    -333.541
  O     -399.959    -481.877    -334.210
  N     -398.725    -481.467    -332.349
  C     -397.660    -481.728    -331.661
  N     -397.490    -481.052    -330.496
  C     -396.652    -482.719    -332.092
  C     -396.886    -483.335    -333.249
  O     -395.726    -489.328    -337.039
  O     -395.818    -487.329    -338.655
  H     -399.811    -482.797    -337.136
  H     -395.901    -488.019    -339.335
  H     -395.777    -482.913    -331.477
  H     -396.189    -484.070    -333.629
  H     -399.355    -483.989    -335.273
  H     -397.978    -481.719    -336.224
  H     -395.881    -482.844    -336.163
  H     -397.330    -485.232    -337.451
  H     -398.199    -480.373    -330.251
  H     -394.872    -485.448    -337.454
  H     -396.746    -481.235    -329.844
  H     -394.811    -485.007    -335.730
  P     -395.398    -481.670    -338.563
  C     -393.196    -482.993    -338.314
  O     -393.954    -481.868    -337.879
  O     -396.082    -480.391    -338.236
  O     -395.075    -481.853    -340.119
  H     -395.877    -481.688    -340.679
  H     -392.263    -483.018    -337.792
  H     -393.014    -482.916    -339.366
  H     -393.742    -483.891    -338.112

 6  7  8  9  10  11  12  13  14  15  16  26  30  31  32  33  35 0
 6-311+G(2d,p)
 ****
 37  38 0
 6-311+G(2d,p)
 ****
 1  2  3  4  5  17  18  19  20  21  22  23  24  25 0
 3-21G
 ****
 27  28  29  34  36  39  40  41  42  43  44  45  46 0
 3-21G
 ****


