%nproc=1
%NoSave
%Mem=1900MB
#P OB98/GEN NMR

erre ene a

0 1
  C     -890.620     367.504    -894.010
  O     -891.340     366.586    -893.200
  P     -891.530     365.076    -893.710
  C     -893.540     365.727    -895.320
  O     -892.310     365.057    -895.100
  C     -894.040     365.453    -896.740
  O     -893.500     364.213    -897.210
  C     -895.550     365.379    -896.840
  O     -896.160     366.634    -897.040
  C     -895.740     364.452    -898.030
  O     -895.520     365.174    -899.270
  C     -894.590     363.414    -897.810
  N     -894.850     362.276    -896.920
  C     -895.490     361.125    -897.420
  O     -895.840     361.013    -898.620
  N     -895.690     360.107    -896.550
  C     -895.190     360.014    -895.280
  O     -895.340     359.029    -894.560
  C     -894.390     361.172    -894.840
  C     -894.270     362.225    -895.650
  O     -892.590     364.443    -892.670
  O     -890.250     364.282    -893.750
  H     -895.700     364.553    -900.000
  H     -892.170     363.743    -892.160
  H     -896.190     359.296    -896.880
  H     -893.940     361.125    -893.850
  H     -893.710     363.102    -895.330
  H     -894.230     363.024    -898.760
  H     -896.750     364.051    -898.090
  H     -895.970     364.881    -895.960
  H     -893.670     366.272    -897.400
  H     -893.410     366.800    -895.150
  H     -894.280     365.383    -894.580
  P     -897.050     367.282    -895.840
  C     -899.040     366.920    -897.400
  O     -898.530     366.733    -896.100
  O     -896.930     368.757    -895.640
  O     -896.600     366.429    -894.550
  H     -895.910     366.949    -894.030
  H     -900.000     366.382    -897.500
  H     -898.370     366.530    -898.170
  H     -899.250     368.005    -897.590
  H     -890.588     368.458    -893.526
  H     -891.107     367.602    -894.958
  H     -889.623     367.144    -894.157

 3  4  5  6  7  8  9  10  11  12  13  23  28  29  30  31  32 0
 6-311+G(2d,p)
 ****
 33  34 0
 6-311+G(2d,p)
 ****
 1  2  14  15  16  17  18  19  20  21  22  24  25  26  27 0
 3-21G
 ****
 35  36  37  38  39  40  41  42  43  44  45 0
 3-21G
 ****


