%nproc=1
%NoSave
%Mem=1900MB
#P OB98/GEN NMR

erre ene a

0 1
  C        6.125    -181.613    -106.517
  O        6.402    -180.765    -107.616
  P        6.682    -181.462    -109.035
  C        8.354    -183.297    -109.812
  O        8.043    -182.289    -108.854
  C        9.848    -183.607    -109.793
  O       10.579    -182.548    -110.435
  C       10.437    -183.725    -108.397
  O       10.115    -184.975    -107.823
  C       11.923    -183.539    -108.682
  O       12.542    -184.786    -109.034
  C       11.916    -182.567    -109.886
  N       12.365    -181.232    -109.529
  C       13.343    -180.674    -110.362
  O       13.783    -181.320    -111.315
  N       13.822    -179.422    -110.068
  C       13.368    -178.787    -109.033
  N       13.876    -177.547    -108.793
  C       12.353    -179.347    -108.120
  C       11.903    -180.565    -108.420
  O        7.109    -180.235    -109.965
  O        5.528    -182.227    -109.593
  H       12.313    -185.408    -108.311
  H        6.912    -180.425    -110.902
  H       12.009    -178.776    -107.269
  H       11.158    -181.051    -107.801
  H       12.571    -182.943    -110.682
  H       12.461    -183.152    -107.811
  H       10.079    -182.908    -107.758
  H       10.014    -184.532    -110.361
  H       14.576    -177.193    -109.432
  H        8.078    -182.946    -110.809
  H       13.572    -176.964    -108.025
  H        7.768    -184.193    -109.584
  P        9.780    -185.013    -106.258
  C       11.211    -185.141    -104.132
  O       11.192    -185.262    -105.541
  O        9.067    -186.441    -106.099
  O        8.945    -183.903    -105.712
  H        8.723    -186.540    -105.193
  H       12.179    -185.485    -103.763
  H       10.423    -185.754    -103.684
  H       11.075    -184.094    -103.845
  H        5.959    -181.020    -105.642
  H        6.956    -182.267    -106.353
  H        5.250    -182.193    -106.726

 3  4  5  6  7  8  9  10  11  12  13  21  23  27  28  29  30  32 0
 6-311+G(2d,p)
 ****
 34  35 0
 6-311+G(2d,p)
 ****
 1  2  14  15  16  17  18  19  20  22  24  25  26 0
 3-21G
 ****
 31  33  36  37  38  39  40  41  42  43  44  45  46 0
 3-21G
 ****


