%nproc=1
%NoSave
%Mem=1900MB
#P OB98/GEN NMR

erre ene a

0 1
  C      360.271    -175.941     109.754
  O      359.786    -174.824     110.503
  P      358.568    -174.998     111.534
  C      358.717    -172.960     113.074
  O      358.037    -173.544     111.967
  C      360.026    -172.262     112.685
  O      359.777    -171.155     111.784
  C      360.835    -171.710     113.862
  O      362.210    -171.840     113.488
  C      360.417    -170.251     113.887
  O      361.328    -169.431     114.605
  C      360.299    -169.957     112.386
  N      359.456    -168.796     112.112
  C      359.977    -167.545     112.434
  O      361.078    -167.452     112.980
  N      359.223    -166.429     112.178
  C      358.014    -166.558     111.730
  N      357.305    -165.416     111.518
  C      357.389    -167.867     111.456
  C      358.165    -168.931     111.658
  O      358.842    -175.923     112.674
  O      357.376    -175.566     110.625
  H      362.150    -169.347     114.075
  H      356.796    -176.131     111.170
  H      356.368    -167.931     111.108
  H      357.801    -169.936     111.481
  H      361.291    -169.774     111.951
  H      359.435    -170.157     114.369
  H      360.638    -172.223     114.806
  H      360.630    -172.990     112.130
  H      357.760    -164.539     111.744
  H      358.934    -173.747     113.802
  H      356.325    -165.410     111.282
  H      358.046    -172.245     113.564
  P      363.185    -172.897     114.189
  C      364.446    -173.902     112.203
  O      364.502    -172.988     113.281
  O      362.558    -174.214     114.509
  O      363.704    -172.162     115.517
  H      364.068    -172.826     116.130
  H      365.297    -173.726     111.544
  H      363.520    -173.780     111.633
  H      364.501    -174.927     112.586
  H      361.079    -175.626     109.127
  H      359.481    -176.334     109.148
  H      360.616    -176.699     110.426

 3  4  5  6  7  8  9  10  11  12  13  23  27  28  29  30  32 0
 6-311+G(2d,p)
 ****
 34  35 0
 6-311+G(2d,p)
 ****
 1  2  14  15  16  17  18  19  20  21  22  24  25  26 0
 3-21G
 ****
 31  33  36  37  38  39  40  41  42  43  44  45  46 0
 3-21G
 ****


