%nproc=1
%NoSave
%Mem=1900MB
#P OB98/GEN NMR

erre ene a

0 1
  C      686.247     201.362     412.726
  O      685.621     200.928     411.534
  H      686.493     200.484     413.333
  H      685.567     202.001     413.295
  H      687.171     201.905     412.500
  P      685.334     202.044     410.423
  C      682.733     201.744     410.632
  O      683.859     202.613     410.692
  C      681.751     202.080     411.749
  O      682.406     202.123     413.029
  C      681.130     203.463     411.619
  O      680.189     203.544     410.570
  C      680.509     203.614     413.007
  O      679.271     202.892     413.108
  C      681.599     202.963     413.900
  N      682.404     203.952     414.604
  C      681.703     205.023     415.163
  O      680.474     205.087     415.055
  N      682.406     206.006     415.812
  C      683.697     205.921     415.911
  N      684.338     206.932     416.554
  C      684.477     204.792     415.357
  C      683.775     203.860     414.717
  O      685.140     201.172     409.098
  O      686.370     203.116     410.314
  H      679.002     202.941     414.042
  H      684.474     200.467     409.186
  H      685.548     204.757     415.468
  H      684.268     202.999     414.281
  H      681.134     202.298     414.644
  H      680.283     204.656     413.244
  H      681.906     204.230     411.519
  H      680.983     201.296     411.786
  H      683.773     207.702     416.898
  H      683.044     200.701     410.697
  H      685.337     206.989     416.657
  H      682.262     201.885     409.658
  P      680.472     204.493     409.301
  C      678.778     206.116     410.368
  O      680.057     205.975     409.750
  O      679.853     204.029     408.022
  O      682.070     204.584     409.259
  H      682.476     204.958     410.058
  H      678.615     207.143     410.621
  H      678.743     205.520     411.256
  H      678.017     205.791     409.690

 6  7  8  9  10  11  12  13  14  15  16  26  30  31  32  33  35 0
 6-311+G(2d,p)
 ****
 37  38 0
 6-311+G(2d,p)
 ****
 1  2  3  4  5  17  18  19  20  21  22  23  24  25 0
 3-21G
 ****
 27  28  29  34  36  39  40  41  42  43  44  45  46 0
 3-21G
 ****


