%nproc=1
%NoSave
%Mem=1900MB
#P OB98/GEN NMR

erre ene a

0 1
  C      -48.616    -782.578    -293.914
  O      -47.602    -783.526    -293.665
  H      -48.741    -782.470    -294.993
  H      -48.332    -781.609    -293.496
  H      -49.569    -782.906    -293.480
  P      -47.397    -783.984    -292.138
  C      -46.751    -782.774    -289.932
  O      -46.848    -782.698    -291.349
  C      -45.660    -781.841    -289.423
  O      -46.041    -780.460    -289.648
  C      -45.371    -781.970    -287.931
  O      -44.490    -783.050    -287.654
  C      -44.702    -780.627    -287.662
  O      -43.339    -780.661    -288.143
  C      -45.535    -779.677    -288.525
  N      -46.985    -776.045    -285.288
  C      -45.722    -776.362    -285.765
  N      -44.701    -775.610    -285.310
  N      -45.486    -777.333    -286.614
  C      -46.602    -778.012    -286.975
  C      -47.902    -777.793    -286.569
  C      -48.150    -776.714    -285.641
  O      -49.248    -776.376    -285.203
  N      -48.766    -778.673    -287.166
  C      -47.991    -779.440    -287.904
  N      -46.670    -779.086    -287.820
  O      -46.118    -784.950    -292.210
  O      -48.567    -784.670    -291.518
  H      -42.973    -779.769    -287.996
  H      -46.237    -785.671    -291.564
  H      -47.108    -775.302    -284.629
  H      -48.335    -780.262    -288.522
  H      -44.948    -778.853    -288.935
  H      -44.663    -780.384    -286.601
  H      -44.807    -774.883    -284.621
  H      -46.293    -782.038    -287.347
  H      -43.770    -775.802    -285.673
  H      -44.755    -782.025    -290.013
  H      -46.513    -783.806    -289.646
  H      -47.716    -782.503    -289.499
  P      -44.344    -783.515    -286.123
  C      -42.832    -782.774    -284.144
  O      -43.284    -782.503    -285.468
  O      -43.523    -784.884    -286.240
  O      -45.627    -783.687    -285.387
  H      -43.683    -785.439    -285.451
  H      -42.135    -782.020    -283.844
  H      -42.355    -783.731    -284.119
  H      -43.667    -782.774    -283.475

 6  7  8  9  10  11  12  13  14  15  26  29  33  34 0
 6-311+G(2d,p)
 ****
 36  38  39  40  41 0
 6-311+G(2d,p)
 ****
 1  2  3  4  5  16  17  18  19  20  21  22  23  24  25 0
 3-21G
 ****
 27  28  30  31  32  35  37  42  43  44  45  46  47 0
 3-21G
 ****
 48  49 0
 3-21G
 ****


