%nproc=1
%NoSave
%Mem=1900MB
#P OB98/GEN NMR

erre ene a

0 1
  C      151.551    -211.303    -315.366
  O      152.313    -211.364    -316.580
  P      151.697    -210.650    -317.877
  C      150.941    -211.423    -320.236
  O      151.150    -211.782    -318.876
  C      151.528    -212.480    -321.191
  O      152.978    -212.531    -321.070
  C      151.015    -213.901    -320.926
  O      151.006    -214.620    -322.169
  C      152.089    -214.482    -320.030
  O      152.047    -215.911    -320.013
  C      153.335    -213.871    -320.676
  N      157.047    -216.661    -318.683
  C      156.033    -217.015    -319.552
  N      156.029    -218.296    -319.980
  N      155.107    -216.185    -319.972
  C      155.263    -214.930    -319.480
  C      156.210    -214.455    -318.610
  C      157.217    -215.389    -318.140
  O      158.124    -215.130    -317.354
  N      156.020    -213.124    -318.330
  C      154.944    -212.797    -319.027
  N      154.474    -213.849    -319.774
  O      153.002    -210.087    -318.629
  O      150.744    -209.545    -317.567
  H      151.855    -216.202    -320.937
  H      153.042    -209.119    -318.548
  H      157.723    -217.337    -318.387
  H      154.476    -211.828    -319.031
  H      153.651    -214.419    -321.568
  H      151.961    -214.119    -319.005
  H      156.744    -218.965    -319.748
  H      150.015    -213.942    -320.474
  H      155.323    -218.568    -320.652
  H      151.298    -212.187    -322.217
  H      151.394    -210.453    -320.446
  H      149.869    -211.290    -320.409
  P      149.587    -214.851    -322.863
  C      147.641    -216.542    -322.502
  O      148.877    -216.021    -322.033
  O      149.957    -215.556    -324.255
  O      148.772    -213.615    -323.059
  H      149.260    -215.393    -324.913
  H      147.814    -217.511    -322.980
  H      147.158    -215.864    -323.224
  H      146.973    -216.682    -321.659
  H      152.077    -211.816    -314.589
  H      150.599    -211.767    -315.519
  H      151.409    -210.280    -315.085

 3  4  5  6  7  8  9  10  11  12  23  26  30  31 0
 6-311+G(2d,p)
 ****
 33  35  36  37  38 0
 6-311+G(2d,p)
 ****
 1  2  13  14  15  16  17  18  19  20  21  22  24  25 0
 3-21G
 ****
 27  28  29  32  34  39  40  41  42  43  44  45  46  47  48  49 0
 3-21G
 ****


