%nproc=1
%NoSave
%Mem=1900MB
#P OB98/GEN NMR

erre ene a

0 1
  C      118.214    -152.271       4.501
  O      117.799    -152.806       3.252
  P      118.906    -153.559       2.359
  C      119.243    -151.600       0.682
  O      119.809    -152.395       1.724
  C      120.277    -150.622       0.135
  O      120.733    -149.742       1.180
  C      121.532    -151.276      -0.427
  O      121.345    -151.747      -1.753
  C      122.502    -150.106      -0.409
  O      122.254    -149.250      -1.537
  C      122.115    -149.392       0.893
  N      126.211    -148.094       3.662
  C      125.672    -147.554       2.551
  N      124.584    -147.964       1.867
  C      124.065    -149.076       2.416
  C      124.531    -149.756       3.531
  C      125.654    -149.218       4.177
  N      126.191    -149.749       5.328
  N      123.740    -150.855       3.792
  C      122.808    -150.830       2.868
  N      122.954    -149.768       2.014
  O      118.059    -154.095       1.110
  O      119.638    -154.657       3.055
  H      121.393    -148.816      -1.382
  H      118.517    -154.849       0.700
  H      126.174    -146.670       2.165
  H      122.006    -151.553       2.773
  H      122.161    -148.301       0.801
  H      123.549    -150.417      -0.465
  H      121.900    -152.069       0.238
  H      119.788    -150.008      -0.633
  H      118.397    -151.035       1.086
  H      126.872    -149.204       5.828
  H      125.653    -150.464       5.816
  H      118.879    -152.259      -0.113
  P      122.351    -152.891      -2.265
  C      123.954    -151.170      -3.368
  O      123.779    -152.177      -2.389
  O      121.894    -153.117      -3.780
  O      122.306    -154.144      -1.460
  H      122.128    -154.019      -4.074
  H      124.845    -150.589      -3.118
  H      123.095    -150.492      -3.399
  H      124.099    -151.630      -4.351
  H      117.381    -151.803       4.983
  H      118.986    -151.548       4.340
  H      118.587    -153.060       5.121

 3  4  5  6  7  8  9  10  11  12  22  25  29  30  31  32 0
 6-311+G(2d,p)
 ****
 33  36  37 0
 6-311+G(2d,p)
 ****
 1  2  13  14  15  16  17  18  19  20  21  23  24  26 0
 3-21G
 ****
 27  28  34  35  38  39  40  41  42  43  44  45  46  47  48 0
 3-21G
 ****


