%nproc=1
%NoSave
%Mem=1900MB
#P OB98/GEN NMR

erre ene a

0 1
  C       31.706     -92.820      47.539
  O       32.228     -93.258      46.300
  H       30.989     -92.011      47.380
  H       31.192     -93.656      48.019
  H       32.515     -92.480      48.192
  P       33.051     -92.178      45.446
  C       30.930     -91.702      44.029
  O       31.963     -91.165      44.840
  C       29.832     -90.663      43.820
  O       29.410     -90.123      45.089
  C       30.245     -89.460      42.978
  O       30.214     -89.752      41.590
  C       29.163     -88.462      43.363
  O       27.953     -88.755      42.640
  C       28.969     -88.760      44.857
  N       28.643     -84.870      48.165
  C       27.698     -85.589      47.523
  N       27.861     -86.625      46.673
  C       29.165     -86.912      46.524
  C       30.241     -86.285      47.127
  C       29.944     -85.210      47.982
  N       30.926     -84.437      48.582
  N       31.432     -86.850      46.715
  C       31.079     -87.790      45.864
  N       29.720     -87.869      45.720
  O       33.535     -93.025      44.174
  O       34.199     -91.545      46.159
  H       28.170     -88.688      41.691
  H       34.449     -93.329      44.321
  H       26.672     -85.292      47.713
  H       31.767     -88.429      45.328
  H       27.917     -88.706      45.156
  H       29.433     -87.427      43.135
  H       31.220     -89.067      43.288
  H       28.968     -91.172      43.374
  H       30.503     -92.585      44.517
  H       30.635     -83.479      48.758
  H       31.854     -84.569      48.199
  H       31.359     -92.000      43.067
  P       31.400     -89.171      40.679
  C       29.828     -87.229      40.010
  O       31.110     -87.602      40.498
  O       31.075     -89.787      39.237
  O       32.777     -89.528      41.122
  H       31.848     -90.287      38.911
  H       29.770     -86.163      39.938
  H       29.074     -87.583      40.682
  H       29.675     -87.661      39.043

 6  7  8  9  10  11  12  13  14  15  25  28  32  33  34  35 0
 6-311+G(2d,p)
 ****
 36  39  40 0
 6-311+G(2d,p)
 ****
 1  2  3  4  5  16  17  18  19  20  21  22  23  24 0
 3-21G
 ****
 26  27  29  30  31  37  38  41  42  43  44  45  46  47  48 0
 3-21G
 ****


