%nproc=1
%NoSave
%Mem=1900MB
#P OB98/GEN NMR

erre ene a

0 1
  C      -11.761    -247.904     340.215
  O      -12.522    -249.062     340.487
  H      -12.205    -247.381     339.363
  H      -10.740    -248.193     339.952
  H      -11.747    -247.231     341.076
  P      -12.306    -249.765     341.912
  C      -13.646    -247.947     343.192
  O      -12.399    -248.601     343.017
  C      -14.058    -247.968     344.664
  O      -12.933    -247.498     345.468
  C      -15.270    -247.077     344.992
  O      -16.059    -247.724     345.996
  C      -14.626    -245.849     345.611
  O      -15.523    -245.135     346.453
  C      -13.454    -246.486     346.350
  N      -12.097    -243.272     349.959
  C      -13.043    -244.279     349.963
  N      -13.790    -244.416     351.077
  N      -13.244    -245.083     348.952
  C      -12.415    -244.849     347.903
  C      -11.445    -243.887     347.776
  C      -11.242    -242.990     348.895
  O      -10.438    -242.067     348.946
  N      -10.865    -243.937     346.531
  C      -11.501    -244.915     345.906
  N      -12.449    -245.497     346.699
  O      -10.749    -250.136     341.883
  O      -13.159    -250.960     342.170
  H      -16.367    -245.019     345.972
  H      -10.634    -251.056     341.582
  H      -11.994    -242.672     350.757
  H      -11.322    -245.223     344.887
  H      -13.761    -246.973     347.285
  H      -14.274    -245.173     344.822
  H      -13.673    -243.857     351.906
  H      -15.895    -246.841     344.124
  H      -14.461    -245.176     351.109
  H      -14.250    -249.006     344.960
  H      -14.409    -248.464     342.601
  H      -13.566    -246.915     342.833
  P      -17.642    -247.822     345.763
  C      -17.780    -250.185     344.677
  O      -17.915    -248.782     344.506
  O      -18.017    -246.370     345.203
  O      -18.417    -248.151     346.997
  H      -18.904    -246.114     345.519
  H      -17.994    -250.679     343.752
  H      -18.465    -250.520     345.428
  H      -16.779    -250.413     344.980

 6  7  8  9  10  11  12  13  14  15  26  29  33  34 0
 6-311+G(2d,p)
 ****
 36  38  39  40  41 0
 6-311+G(2d,p)
 ****
 1  2  3  4  5  16  17  18  19  20  21  22  23  24  25 0
 3-21G
 ****
 27  28  30  31  32  35  37  42  43  44  45  46  47 0
 3-21G
 ****
 48  49 0
 3-21G
 ****


