%nproc=1
%NoSave
%Mem=1900MB
#P OB98/GEN NMR

erre ene a

0 1
  C     -251.074     348.727     211.865
  O     -249.745     348.538     211.405
  P     -249.516     347.547     210.160
  C     -248.182     345.877     211.697
  O     -249.260     346.097     210.799
  C     -248.141     344.402     212.114
  O     -249.250     344.108     212.986
  C     -248.262     343.412     210.960
  O     -247.044     343.292     210.236
  C     -248.694     342.150     211.699
  O     -247.555     341.507     212.298
  C     -249.616     342.724     212.792
  N     -251.039     342.595     212.474
  C     -251.579     341.317     212.583
  O     -250.922     340.336     212.933
  N     -252.908     341.201     212.264
  C     -253.707     342.201     211.793
  O     -254.883     342.034     211.478
  C     -253.075     343.520     211.662
  C     -251.788     343.655     212.004
  O     -248.078     348.033     209.661
  O     -250.603     347.625     209.145
  H     -247.555     348.419     210.385
  H     -246.854     341.503     211.619
  H     -253.328     340.290     212.359
  H     -253.675     344.336     211.282
  H     -251.303     344.618     211.908
  H     -249.435     342.219     213.749
  H     -249.174     341.420     211.038
  H     -249.060     343.730     210.278
  H     -247.212     344.231     212.673
  H     -248.319     346.502     212.581
  H     -247.249     346.161     211.204
  P     -247.119     342.517     208.829
  C     -245.587     340.505     209.506
  O     -246.874     340.966     209.160
  O     -245.754     342.997     208.143
  O     -248.349     342.824     208.042
  H     -245.001     343.004     208.761
  H     -245.684     339.550     210.024
  H     -245.072     341.215     210.158
  H     -244.997     340.357     208.594
  H     -251.072     349.407     212.691
  H     -251.481     347.788     212.177
  H     -251.672     349.129     211.074

 3  4  5  6  7  8  9  10  11  12  13  24  28  29  30  31  32 0
 6-311+G(2d,p)
 ****
 33  34 0
 6-311+G(2d,p)
 ****
 1  2  14  15  16  17  18  19  20  21  22  23  25  26  27 0
 3-21G
 ****
 35  36  37  38  39  40  41  42  43  44  45 0
 3-21G
 ****


