%nproc=1
%NoSave
%Mem=1900MB
#P OB98/GEN NMR

erre ene a

0 1
  C      573.141     230.065     823.294
  O      572.512     230.670     824.411
  H      572.865     230.619     822.397
  H      572.815     229.029     823.192
  H      574.228     230.103     823.419
  P      572.705     229.938     825.826
  C      570.831     228.226     825.225
  O      572.197     228.435     825.547
  C      570.439     226.776     825.521
  O      571.377     225.863     824.915
  C      570.439     226.420     827.009
  O      569.299     226.894     827.697
  C      570.456     224.911     826.913
  O      569.150     224.431     826.524
  C      571.485     224.699     825.775
  N      572.851     224.549     826.279
  C      573.077     223.491     827.163
  O      572.162     222.743     827.512
  N      574.343     223.318     827.686
  C      575.305     224.117     827.329
  N      576.529     223.908     827.869
  C      575.111     225.229     826.380
  C      573.879     225.386     825.902
  O      571.521     230.540     826.722
  O      574.058     230.039     826.438
  H      569.189     223.452     826.565
  H      571.455     230.047     827.574
  H      575.943     225.878     826.120
  H      573.663     226.180     825.194
  H      571.229     223.816     825.176
  H      570.703     224.412     827.852
  H      571.357     226.752     827.507
  H      569.459     226.596     825.067
  H      576.616     223.165     828.569
  H      570.692     228.437     824.154
  H      577.295     224.557     827.777
  H      570.192     228.903     825.807
  P      569.462     227.236     829.261
  C      567.679     225.398     829.770
  O      568.967     225.949     830.070
  O      568.307     228.309     829.529
  O      570.809     227.753     829.644
  H      568.589     228.960     830.199
  H      567.501     224.547     830.394
  H      567.649     225.099     828.743
  H      566.925     226.136     829.949

 6  7  8  9  10  11  12  13  14  15  16  26  30  31  32  33  35 0
 6-311+G(2d,p)
 ****
 37  38 0
 6-311+G(2d,p)
 ****
 1  2  3  4  5  17  18  19  20  21  22  23  24  25 0
 3-21G
 ****
 27  28  29  34  36  39  40  41  42  43  44  45  46 0
 3-21G
 ****


