%nproc=1
%NoSave
%Mem=1900MB
#P OB98/GEN NMR

erre ene a

0 1
  C     -270.959     777.256    -204.425
  O     -270.600     778.513    -204.983
  P     -271.561     779.131    -206.134
  C     -272.529     780.980    -204.551
  O     -272.795     779.872    -205.402
  C     -273.798     781.372    -203.775
  O     -274.012     780.495    -202.645
  C     -273.717     782.789    -203.167
  O     -274.064     783.772    -204.144
  C     -274.819     782.704    -202.100
  O     -276.096     782.848    -202.708
  C     -274.638     781.263    -201.579
  N     -273.640     783.270    -196.968
  C     -274.506     783.640    -197.945
  N     -274.710     783.066    -199.150
  C     -273.903     781.998    -199.298
  C     -272.955     781.505    -198.402
  C     -272.849     782.194    -197.183
  N     -271.952     781.824    -196.198
  N     -272.315     780.401    -198.923
  C     -272.849     780.214    -200.102
  N     -273.811     781.159    -200.384
  O     -272.228     777.831    -206.783
  O     -270.843     779.948    -207.156
  H     -276.131     783.734    -203.099
  H     -272.386     777.974    -207.719
  H     -275.139     784.510    -197.721
  H     -272.587     779.398    -200.785
  H     -275.603     780.783    -201.352
  H     -274.710     783.485    -201.346
  H     -272.739     782.965    -202.702
  H     -274.660     781.311    -204.456
  H     -272.176     781.822    -205.146
  H     -271.954     782.347    -195.342
  H     -271.380     781.010    -196.341
  H     -271.704     780.713    -203.871
  P     -272.901     784.778    -204.578
  C     -272.723     783.811    -207.004
  O     -272.095     784.034    -205.754
  O     -271.883     784.778    -203.338
  O     -273.373     786.162    -204.908
  H     -271.431     785.626    -203.264
  H     -271.953     783.570    -207.774
  H     -273.264     784.724    -207.323
  H     -273.436     782.976    -206.933
  H     -270.239     776.976    -203.684
  H     -270.982     776.516    -205.198
  H     -271.926     777.330    -203.973

 3  4  5  6  7  8  9  10  11  12  22  25  29  30  31  32 0
 6-311+G(2d,p)
 ****
 33  36  37 0
 6-311+G(2d,p)
 ****
 1  2  13  14  15  16  17  18  19  20  21  23  24  26 0
 3-21G
 ****
 27  28  34  35  38  39  40  41  42  43  44  45  46  47  48 0
 3-21G
 ****


