%nproc=1
%NoSave
%Mem=1900MB
#P OB98/GEN NMR

erre ene a

0 1
  C      -32.030      47.191     -55.834
  O      -33.281      47.065     -55.180
  P      -34.249      45.879     -55.666
  C      -35.825      45.505     -57.704
  O      -35.041      46.420     -56.949
  C      -36.990      46.235     -58.368
  O      -37.769      46.933     -57.377
  C      -36.578      47.295     -59.380
  O      -36.154      46.705     -60.598
  C      -37.867      48.103     -59.478
  O      -38.810      47.427     -60.325
  C      -38.362      48.091     -58.022
  N      -40.027      52.551     -56.137
  C      -40.645      51.589     -56.859
  N      -40.130      50.441     -57.342
  C      -38.835      50.325     -57.008
  C      -38.066      51.231     -56.298
  C      -38.715      52.391     -55.848
  N      -38.078      53.371     -55.117
  N      -36.770      50.780     -56.170
  C      -36.758      49.615     -56.783
  N      -37.985      49.289     -57.293
  O      -35.370      45.835     -54.529
  O      -33.578      44.552     -55.842
  H      -39.657      47.912     -60.262
  H      -35.681      44.922     -54.379
  H      -41.696      51.766     -57.074
  H      -35.893      48.973     -56.879
  H      -39.451      47.989     -57.949
  H      -37.716      49.107     -59.889
  H      -35.774      47.921     -58.973
  H      -37.633      45.483     -58.845
  H      -36.226      44.733     -57.040
  H      -38.576      54.235     -54.963
  H      -37.072      53.317     -55.025
  H      -35.187      45.023     -58.450
  P      -34.864      47.338     -61.312
  C      -34.371      49.631     -62.358
  O      -35.323      48.834     -61.677
  O      -34.890      46.608     -62.733
  O      -33.596      47.217     -60.540
  H      -35.771      46.641     -63.145
  H      -34.827      50.597     -62.590
  H      -34.069      49.147     -63.291
  H      -33.497      49.797     -61.722
  H      -31.490      48.014     -55.415
  H      -32.189      47.363     -56.878
  H      -31.466      46.291     -55.702

 3  4  5  6  7  8  9  10  11  12  22  25  29  30  31  32 0
 6-311+G(2d,p)
 ****
 33  36  37 0
 6-311+G(2d,p)
 ****
 1  2  13  14  15  16  17  18  19  20  21  23  24  26 0
 3-21G
 ****
 27  28  34  35  38  39  40  41  42  43  44  45  46  47  48 0
 3-21G
 ****


