%nproc=1
%NoSave
%Mem=1900MB
#P OB98/GEN NMR

erre ene a

0 1
  C      242.337     287.384     202.634
  O      242.535     288.757     202.313
  P      241.468     289.830     202.837
  C      242.953     291.420     204.345
  O      241.949     290.436     204.236
  C      243.143     291.788     205.826
  O      241.976     292.482     206.324
  C      243.361     290.575     206.725
  O      244.722     290.196     206.783
  C      242.811     291.067     208.050
  O      243.763     291.931     208.700
  C      241.578     291.875     207.585
  N      240.306     291.147     207.381
  C      239.322     291.179     208.365
  O      239.431     291.780     209.434
  N      238.169     290.491     208.087
  C      237.830     289.936     206.888
  O      236.760     289.385     206.676
  C      238.842     290.059     205.834
  C      240.011     290.634     206.122
  O      240.199     288.941     203.224
  O      241.126     290.899     201.849
  H      243.846     292.731     208.154
  H      239.439     289.161     202.651
  H      237.474     290.445     208.817
  H      238.599     289.673     204.851
  H      240.770     290.729     205.348
  H      241.363     292.690     208.288
  H      242.638     290.239     208.737
  H      242.737     289.741     206.392
  H      244.000     292.470     205.909
  H      242.690     292.313     203.773
  H      243.891     291.040     203.927
  P      245.160     288.717     206.352
  C      247.397     289.425     205.319
  O      246.106     288.904     205.069
  O      244.054     287.724     206.198
  O      246.200     288.283     207.491
  H      245.754     287.752     208.187
  H      247.990     289.354     204.402
  H      247.895     288.852     206.108
  H      247.325     290.474     205.611
  H      243.130     286.802     202.214
  H      241.401     287.055     202.232
  H      242.331     287.264     203.697

 3  4  5  6  7  8  9  10  11  12  13  23  28  29  30  31  32 0
 6-311+G(2d,p)
 ****
 33  34 0
 6-311+G(2d,p)
 ****
 1  2  14  15  16  17  18  19  20  21  22  24  25  26  27 0
 3-21G
 ****
 35  36  37  38  39  40  41  42  43  44  45 0
 3-21G
 ****


