%nproc=1
%NoSave
%Mem=1900MB
#P OB98/GEN NMR

erre ene a

0 1
  C        3.574       1.929       4.938
  O        3.460       2.783       3.815
  H        2.747       2.135       5.622
  H        4.517       2.122       5.456
  H        3.526       0.881       4.629
  P        4.443       2.479       2.588
  C        4.664       0.526       0.852
  O        4.138       0.980       2.092
  C        4.591      -0.996       0.778
  O        5.520      -1.599       1.702
  C        3.249      -1.578       1.188
  O        2.244      -1.361       0.222
  C        3.618      -3.045       1.359
  O        3.585      -3.749       0.112
  C        5.065      -2.958       1.901
  N        5.146      -3.371       3.290
  C        5.796      -4.591       3.516
  O        6.268      -5.224       2.571
  N        5.858      -5.075       4.796
  C        5.298      -4.417       5.762
  N        5.368      -4.969       7.003
  C        4.602      -3.129       5.567
  C        4.563      -2.668       4.317
  O        5.863       2.343       3.308
  O        4.407       3.491       1.493
  H        4.196      -3.275      -0.487
  H        5.856       1.756       4.082
  H        4.163      -2.612       6.407
  H        4.073      -1.730       4.083
  H        5.735      -3.600       1.314
  H        2.927      -3.558       2.033
  H        2.950      -1.185       2.168
  H        4.865      -1.302      -0.240
  H        5.805      -5.879       7.082
  H        5.697       0.864       0.726
  H        4.902      -4.588       7.813
  H        4.067       0.976       0.053
  P        0.708      -1.197       0.640
  C       -0.552       0.515       2.096
  O        0.674      -0.177       1.883
  O       -0.030      -2.471       0.872
  O        0.105      -0.300      -0.541
  H        0.525       0.570      -0.650
  H       -0.455       1.160       2.944
  H       -1.335      -0.193       2.274
  H       -0.788       1.098       1.230

 6  7  8  9  10  11  12  13  14  15  16  26  30  31  32  33  35 0
 6-311+G(2d,p)
 ****
 37  38 0
 6-311+G(2d,p)
 ****
 1  2  3  4  5  17  18  19  20  21  22  23  24  25 0
 3-21G
 ****
 27  28  29  34  36  39  40  41  42  43  44  45  46 0
 3-21G
 ****


