%nproc=1
%NoSave
%Mem=1900MB
#P OB98/GEN NMR

erre ene a

0 1
  C     -485.810     194.507    -180.577
  O     -486.694     194.392    -181.705
  P     -487.746     193.190    -181.879
  C     -486.747     192.506    -184.155
  O     -487.922     192.860    -183.440
  C     -487.053     192.174    -185.624
  O     -487.359     190.746    -185.757
  C     -488.234     192.955    -186.220
  O     -487.881     193.267    -187.574
  C     -489.356     191.929    -186.161
  O     -490.446     192.223    -187.018
  C     -488.570     190.661    -186.546
  N     -489.256     189.399    -186.290
  C     -490.493     189.200    -186.923
  O     -491.005     190.066    -187.620
  N     -491.133     187.992    -186.733
  C     -490.605     187.087    -185.976
  N     -491.289     185.918    -185.842
  C     -489.321     187.264    -185.279
  C     -488.707     188.429    -185.475
  O     -489.043     193.427    -181.174
  O     -487.020     191.891    -181.288
  H     -487.677     191.328    -180.853
  H     -491.129     191.538    -186.877
  H     -488.912     186.481    -184.661
  H     -487.743     188.635    -185.021
  H     -488.277     190.722    -187.598
  H     -489.736     191.878    -185.134
  H     -488.463     193.885    -185.693
  H     -486.144     192.353    -186.205
  H     -492.165     185.824    -186.350
  H     -486.297     191.626    -183.679
  H     -490.972     185.141    -185.289
  H     -486.029     193.332    -184.092
  P     -487.436     194.764    -187.953
  C     -488.953     195.155    -190.028
  O     -487.650     194.950    -189.528
  O     -485.837     194.667    -187.847
  O     -487.945     195.850    -187.061
  H     -485.474     195.552    -187.655
  H     -488.930     195.957    -190.770
  H     -489.664     195.429    -189.251
  H     -489.301     194.237    -190.518
  H     -485.207     195.384    -180.684
  H     -485.179     193.644    -180.529
  H     -486.386     194.578    -179.678

 3  4  5  6  7  8  9  10  11  12  13  24  27  28  29  30  32 0
 6-311+G(2d,p)
 ****
 34  35 0
 6-311+G(2d,p)
 ****
 1  2  14  15  16  17  18  19  20  21  22  23  25  26 0
 3-21G
 ****
 31  33  36  37  38  39  40  41  42  43  44  45  46 0
 3-21G
 ****


