%nproc=1
%NoSave
%Mem=1900MB
#P OB98/GEN NMR

erre ene a

0 1
  C      239.305      28.570    -114.573
  O      240.680      28.791    -114.791
  P      241.266      30.281    -114.878
  C      240.879      30.268    -117.423
  O      240.621      30.941    -116.193
  C      240.319      31.077    -118.589
  O      238.881      31.242    -118.469
  C      240.851      32.499    -118.673
  O      242.221      32.666    -118.962
  C      239.859      33.137    -119.631
  O      240.177      32.831    -120.988
  C      238.539      32.442    -119.215
  N      237.675      33.329    -118.442
  C      236.693      34.001    -119.163
  O      236.536      33.877    -120.377
  N      235.901      34.858    -118.444
  C      236.027      35.136    -117.113
  O      235.313      35.950    -116.542
  C      237.089      34.409    -116.407
  C      237.855      33.552    -117.091
  O      242.750      30.385    -114.796
  O      240.492      31.049    -113.703
  H      239.508      33.271    -121.551
  H      239.523      31.059    -113.792
  H      235.195      35.366    -118.948
  H      237.206      34.596    -115.348
  H      238.648      33.004    -116.590
  H      237.985      32.109    -120.102
  H      239.847      34.227    -119.540
  H      240.703      32.979    -117.691
  H      240.504      30.523    -119.515
  H      240.388      29.292    -117.401
  H      241.954      30.102    -117.532
  P      243.182      33.672    -118.163
  C      242.717      35.577    -119.860
  O      242.731      35.173    -118.508
  O      244.640      33.366    -118.187
  O      242.637      33.504    -116.660
  H      243.377      33.640    -116.037
  H      242.433      36.633    -119.903
  H      241.985      34.994    -120.425
  H      243.711      35.463    -120.305
  H      239.113      27.518    -114.547
  H      238.742      29.016    -115.366
  H      239.017      29.009    -113.641

 3  4  5  6  7  8  9  10  11  12  13  23  28  29  30  31  32 0
 6-311+G(2d,p)
 ****
 33  34 0
 6-311+G(2d,p)
 ****
 1  2  14  15  16  17  18  19  20  21  22  24  25  26  27 0
 3-21G
 ****
 35  36  37  38  39  40  41  42  43  44  45 0
 3-21G
 ****


