%nproc=1
%NoSave
%Mem=1900MB
#P OB98/GEN NMR

erre ene a

0 1
  C      127.060    -927.508     -25.238
  O      127.993    -926.621     -24.636
  P      129.468    -927.191     -24.340
  C      129.449    -926.442     -21.852
  O      129.495    -927.531     -22.774
  C      129.137    -926.948     -20.446
  O      127.801    -927.484     -20.391
  C      130.042    -928.068     -19.959
  O      131.272    -927.575     -19.451
  C      129.198    -928.650     -18.838
  O      129.316    -927.837     -17.664
  C      127.785    -928.555     -19.408
  N      125.271    -932.947     -18.660
  C      125.617    -931.953     -17.813
  N      126.298    -930.817     -18.093
  C      126.657    -930.782     -19.386
  C      126.411    -931.742     -20.354
  C      125.667    -932.864     -19.958
  N      125.286    -933.861     -20.833
  N      126.934    -931.347     -21.566
  C      127.489    -930.175     -21.335
  N      127.336    -929.783     -20.035
  O      130.380    -925.881     -24.445
  O      129.924    -928.274     -25.259
  H      128.920    -926.962     -17.874
  H      131.294    -926.132     -24.651
  H      125.301    -932.083     -16.784
  H      127.995    -929.575     -22.075
  H      127.047    -928.281     -18.641
  H      129.508    -929.666     -18.550
  H      130.185    -928.831     -20.737
  H      129.173    -926.089     -19.756
  H      128.666    -925.744     -22.161
  H      124.607    -934.531     -20.510
  H      125.406    -933.692     -21.826
  H      130.408    -925.930     -21.865
  P      132.331    -928.670     -18.967
  C      132.303    -927.576     -16.606
  O      132.164    -928.756     -17.375
  O      133.743    -927.927     -19.156
  O      132.275    -929.968     -19.707
  H      134.455    -928.571     -19.289
  H      131.850    -927.743     -15.619
  H      131.786    -926.737     -17.079
  H      133.356    -927.342     -16.473
  H      126.127    -927.003     -25.377
  H      126.915    -928.357     -24.604
  H      127.436    -927.831     -26.186

 3  4  5  6  7  8  9  10  11  12  22  25  29  30  31  32 0
 6-311+G(2d,p)
 ****
 33  36  37 0
 6-311+G(2d,p)
 ****
 1  2  13  14  15  16  17  18  19  20  21  23  24  26 0
 3-21G
 ****
 27  28  34  35  38  39  40  41  42  43  44  45  46  47  48 0
 3-21G
 ****


