%nproc=1
%NoSave
%Mem=1900MB
#P OB98/GEN NMR

erre ene a

0 1
  C     -105.718     -86.756     -11.826
  O     -106.770     -86.539     -12.739
  P     -107.624     -87.711     -13.402
  C     -109.462     -89.370     -12.562
  O     -108.366     -88.524     -12.235
  C     -109.419     -90.668     -11.742
  O     -108.254     -91.430     -12.150
  C     -109.264     -90.382     -10.239
  O     -110.065     -91.209      -9.406
  C     -107.755     -90.441     -10.037
  O     -107.371     -90.655      -8.688
  C     -107.351     -91.528     -11.028
  N     -102.580     -93.210     -10.560
  C     -103.743     -93.735     -10.032
  N     -103.589     -94.721      -9.121
  N     -104.937     -93.303     -10.344
  C     -104.927     -92.240     -11.180
  C     -103.840     -91.636     -11.768
  C     -102.529     -92.143     -11.440
  O     -101.466     -91.635     -11.797
  N     -104.204     -90.539     -12.506
  C     -105.509     -90.458     -12.338
  N     -105.989     -91.449     -11.513
  O     -106.960     -88.490     -14.490
  O     -108.845     -86.887     -14.065
  H     -107.645     -89.874      -8.174
  H     -109.094     -87.355     -14.888
  H     -101.682     -93.534     -10.219
  H     -106.146     -89.690     -12.761
  H     -107.460     -92.524     -10.595
  H     -107.345     -89.468     -10.333
  H     -102.681     -94.971      -8.753
  H     -109.614     -89.372     -10.004
  H     -104.394     -94.945      -8.543
  H     -110.307     -91.266     -11.968
  H     -109.370     -89.595     -13.631
  H     -110.409     -88.848     -12.409
  P     -110.709     -90.873      -7.984
  C     -112.322     -89.116      -7.041
  O     -111.393     -89.427      -8.061
  O     -109.464     -90.625      -7.012
  O     -111.590     -91.944      -7.430
  H     -109.652     -91.012      -6.135
  H     -112.907     -88.246      -7.353
  H     -111.788     -88.873      -6.119
  H     -113.001     -89.956      -6.863
  H     -105.305     -85.815     -11.527
  H     -104.958     -87.347     -12.292
  H     -106.093     -87.270     -10.966

 3  4  5  6  7  8  9  10  11  12  23  26  30  31 0
 6-311+G(2d,p)
 ****
 33  35  36  37  38 0
 6-311+G(2d,p)
 ****
 1  2  13  14  15  16  17  18  19  20  21  22  24  25 0
 3-21G
 ****
 27  28  29  32  34  39  40  41  42  43  44  45  46  47  48  49 0
 3-21G
 ****


