%nproc=1
%NoSave
%Mem=1900MB
#P OB98/GEN NMR

erre ene a

0 1
  C     -520.593     336.976     681.005
  O     -520.469     337.990     682.001
  P     -521.780     338.436     682.806
  C     -521.232     338.844     685.293
  O     -521.661     337.903     684.315
  C     -519.848     338.464     685.843
  O     -518.862     338.631     684.788
  C     -519.353     339.328     687.010
  O     -519.694     338.929     688.336
  C     -517.844     339.167     686.879
  O     -517.426     337.945     687.519
  C     -517.619     339.058     685.376
  N     -513.627     342.155     684.569
  C     -513.731     340.968     685.201
  N     -514.835     340.208     685.374
  C     -515.905     340.783     684.796
  C     -515.944     341.989     684.117
  C     -514.734     342.693     684.009
  N     -514.625     343.908     683.377
  N     -517.223     342.249     683.674
  C     -517.944     341.231     684.098
  N     -517.190     340.311     684.769
  O     -523.086     338.171     682.129
  O     -521.551     340.016     682.987
  H     -517.701     337.216     686.933
  H     -522.410     340.475     682.900
  H     -512.815     340.574     685.628
  H     -519.005     341.122     683.940
  H     -516.865     338.306     685.120
  H     -517.296     339.978     687.369
  H     -519.631     340.377     686.860
  H     -519.857     337.408     686.140
  H     -521.959     338.874     686.113
  H     -513.732     344.371     683.385
  H     -515.458     344.350     683.007
  H     -521.243     339.831     684.827
  P     -521.057     339.403     689.026
  C     -521.360     337.307     690.562
  O     -521.814     338.058     689.458
  O     -521.881     340.349     688.219
  O     -520.552     339.993     690.424
  H     -520.200     339.327     691.036
  H     -522.123     336.564     690.817
  H     -521.189     337.947     691.428
  H     -520.438     336.786     690.296
  H     -519.637     336.793     680.562
  H     -521.280     337.299     680.251
  H     -520.956     336.076     681.456

 3  4  5  6  7  8  9  10  11  12  22  25  29  30  31  32 0
 6-311+G(2d,p)
 ****
 33  36  37 0
 6-311+G(2d,p)
 ****
 1  2  13  14  15  16  17  18  19  20  21  23  24  26 0
 3-21G
 ****
 27  28  34  35  38  39  40  41  42  43  44  45  46  47  48 0
 3-21G
 ****


