%nproc=1
%NoSave
%Mem=1900MB
#P OB98/GEN NMR

erre ene a

0 1
  C      -68.547    -703.062    -165.709
  O      -67.490    -702.536    -164.929
  H      -69.433    -702.436    -165.563
  H      -68.779    -704.077    -165.383
  H      -68.291    -703.060    -166.771
  P      -66.007    -703.096    -165.163
  C      -66.371    -705.394    -164.050
  O      -66.127    -704.693    -165.262
  C      -66.914    -706.800    -164.335
  O      -65.931    -707.512    -165.160
  C      -67.151    -707.654    -163.074
  O      -68.258    -708.523    -163.345
  C      -65.851    -708.433    -162.995
  O      -65.942    -709.514    -162.102
  C      -65.648    -708.753    -164.477
  N      -64.311    -709.235    -164.793
  C      -64.064    -710.597    -164.634
  O      -64.914    -711.408    -164.269
  N      -62.785    -711.002    -164.903
  C      -61.752    -710.201    -165.296
  O      -60.629    -710.627    -165.546
  C      -62.063    -708.767    -165.419
  C      -63.309    -708.357    -165.164
  O      -64.967    -702.596    -164.211
  O      -65.671    -702.668    -166.671
  H      -65.147    -701.850    -166.670
  H      -66.771    -710.013    -162.253
  H      -62.590    -711.991    -164.796
  H      -61.261    -708.101    -165.706
  H      -63.580    -707.309    -165.242
  H      -66.384    -709.483    -164.821
  H      -65.050    -707.785    -162.623
  H      -67.371    -707.049    -162.186
  H      -67.826    -706.713    -164.935
  H      -67.111    -704.828    -163.471
  H      -65.444    -705.459    -163.475
  P      -69.786    -708.110    -163.094
  C      -69.877    -709.052    -160.691
  O      -70.033    -707.908    -161.523
  O      -70.776    -709.035    -163.728
  O      -69.938    -706.631    -163.699
  H      -70.827    -706.531    -164.090
  H      -70.069    -708.782    -159.674
  H      -68.877    -709.423    -160.779
  H      -70.567    -709.811    -160.995

 6  7  8  9  10  11  12  13  14  15  16  27  31  32  33  34  35 0
 6-311+G(2d,p)
 ****
 36  37 0
 6-311+G(2d,p)
 ****
 1  2  3  4  5  17  18  19  20  21  22  23  24  25 0
 3-21G
 ****
 26  28  29  30  38  39  40  41  42  43  44  45 0
 3-21G
 ****


