%nproc=1
%NoSave
%Mem=1900MB
#P OB98/GEN NMR

erre ene a

0 1
  C     -407.247      34.977    -400.141
  O     -407.698      33.766    -400.712
  H     -406.229      34.827    -399.770
  H     -407.886      35.257    -399.300
  H     -407.235      35.777    -400.883
  P     -409.105      33.755    -401.483
  C     -408.427      32.315    -403.514
  O     -408.778      33.614    -403.048
  C     -407.717      32.425    -404.861
  O     -406.496      33.184    -404.716
  C     -407.296      31.081    -405.446
  O     -408.401      30.379    -405.984
  C     -406.255      31.525    -406.457
  O     -406.869      31.963    -407.676
  C     -405.579      32.709    -405.732
  N     -404.293      32.330    -405.144
  C     -403.342      31.825    -406.024
  O     -403.532      31.702    -407.235
  N     -402.171      31.403    -405.458
  C     -401.925      31.310    -404.117
  O     -400.967      30.703    -403.647
  C     -402.938      31.914    -403.240
  C     -404.063      32.377    -403.784
  O     -410.046      34.855    -401.125
  O     -409.718      32.318    -401.118
  H     -410.397      32.428    -400.426
  H     -406.135      32.295    -408.237
  H     -401.490      30.997    -406.083
  H     -402.747      31.930    -402.172
  H     -404.842      32.802    -403.152
  H     -405.416      33.542    -406.424
  H     -405.568      30.713    -406.704
  H     -406.807      30.481    -404.672
  H     -408.374      32.965    -405.556
  H     -409.343      31.726    -403.631
  H     -407.782      31.835    -402.774
  P     -408.710      28.881    -405.516
  C     -411.261      29.158    -405.685
  O     -410.161      28.853    -404.832
  O     -407.630      28.227    -404.718
  O     -408.956      28.091    -406.889
  H     -408.407      27.281    -406.889
  H     -412.171      29.109    -405.125
  H     -411.297      28.450    -406.487
  H     -411.140      30.143    -406.084

 6  7  8  9  10  11  12  13  14  15  16  27  31  32  33  34  35 0
 6-311+G(2d,p)
 ****
 36  37 0
 6-311+G(2d,p)
 ****
 1  2  3  4  5  17  18  19  20  21  22  23  24  25 0
 3-21G
 ****
 26  28  29  30  38  39  40  41  42  43  44  45 0
 3-21G
 ****


