%nproc=1
%NoSave
%Mem=1900MB
#P OB98/GEN NMR

erre ene a

0 1
  C      383.978     228.084    -372.090
  O      385.174     228.833    -371.995
  H      383.132     228.777    -372.112
  H      383.866     227.426    -371.223
  H      383.971     227.493    -373.011
  P      386.562     228.044    -371.868
  C      387.117     228.140    -374.393
  O      386.801     227.316    -373.274
  C      388.584     227.971    -374.785
  O      389.437     228.195    -373.646
  C      388.936     226.579    -375.302
  O      388.460     226.404    -376.621
  C      390.446     226.603    -375.149
  O      391.063     227.338    -376.217
  C      390.604     227.355    -373.805
  N      390.769     226.471    -372.655
  C      391.858     225.595    -372.705
  O      392.607     225.587    -373.683
  N      392.056     224.738    -371.651
  C      391.270     224.779    -370.622
  N      391.523     223.914    -369.606
  C      390.130     225.712    -370.515
  C      389.934     226.513    -371.561
  O      386.705     227.148    -370.675
  O      387.664     229.204    -371.869
  H      392.019     227.355    -376.013
  H      387.894     229.457    -370.954
  H      389.508     225.723    -369.635
  H      389.120     227.230    -371.565
  H      391.473     228.027    -373.843
  H      390.879     225.601    -375.161
  H      388.532     225.815    -374.630
  H      388.823     228.741    -375.533
  H      392.329     223.303    -369.717
  H      386.924     229.177    -374.095
  H      391.083     223.967    -368.701
  H      386.469     227.900    -375.245
  P      388.319     224.944    -377.271
  C      386.045     224.264    -376.279
  O      387.451     224.085    -376.225
  O      389.598     224.312    -377.698
  O      387.282     225.169    -378.472
  H      387.737     225.595    -379.242
  H      385.578     223.645    -375.542
  H      385.688     223.993    -377.250
  H      385.808     225.289    -376.086

 6  7  8  9  10  11  12  13  14  15  16  26  30  31  32  33  35 0
 6-311+G(2d,p)
 ****
 37  38 0
 6-311+G(2d,p)
 ****
 1  2  3  4  5  17  18  19  20  21  22  23  24  25 0
 3-21G
 ****
 27  28  29  34  36  39  40  41  42  43  44  45  46 0
 3-21G
 ****


