%nproc=1
%NoSave
%Mem=1900MB
#P OB98/GEN NMR

erre ene a

0 1
  C     -141.069    -200.449    -428.081
  O     -139.777    -200.214    -428.616
  P     -139.564    -198.948    -429.571
  C     -139.195    -197.178    -427.702
  O     -140.020    -197.643    -428.759
  C     -138.834    -195.709    -427.912
  O     -138.082    -195.227    -426.757
  C     -137.973    -195.447    -429.156
  O     -138.343    -194.164    -429.677
  C     -136.572    -195.377    -428.577
  O     -135.647    -194.716    -429.429
  C     -136.861    -194.648    -427.261
  N     -135.768    -194.763    -426.294
  C     -134.780    -193.785    -426.326
  O     -134.772    -192.842    -427.114
  N     -133.743    -193.959    -425.452
  C     -133.554    -195.033    -424.628
  O     -132.544    -195.184    -423.955
  C     -134.632    -196.035    -424.638
  C     -135.671    -195.855    -425.453
  O     -140.707    -199.123    -430.676
  O     -138.206    -198.849    -430.183
  H     -135.937    -193.786    -429.508
  H     -140.334    -199.503    -431.496
  H     -133.021    -193.252    -425.451
  H     -134.523    -196.889    -423.983
  H     -136.472    -196.590    -425.495
  H     -137.064    -193.586    -427.453
  H     -136.199    -196.391    -428.398
  H     -138.075    -196.218    -429.929
  H     -139.761    -195.123    -427.960
  H     -138.281    -197.774    -427.673
  H     -139.712    -197.319    -426.744
  P     -138.271    -193.948    -431.269
  C     -140.051    -195.837    -431.573
  O     -138.800    -195.305    -431.939
  O     -136.686    -193.992    -431.504
  O     -138.914    -192.683    -431.733
  H     -136.252    -194.701    -430.998
  H     -140.778    -195.051    -431.346
  H     -139.932    -196.480    -430.694
  H     -140.439    -196.442    -432.398
  H     -141.047    -201.326    -427.468
  H     -141.766    -200.590    -428.881
  H     -141.369    -199.608    -427.491

 3  4  5  6  7  8  9  10  11  12  13  23  28  29  30  31  32 0
 6-311+G(2d,p)
 ****
 33  34 0
 6-311+G(2d,p)
 ****
 1  2  14  15  16  17  18  19  20  21  22  24  25  26 0
 3-21G
 ****
 27  35  36  37  38  39  40  41  42  43  44  45 0
 3-21G
 ****


