%nproc=1
%NoSave
%Mem=1900MB
#P OB98/GEN NMR

erre ene a

0 1
  C     -101.695      11.147    -179.734
  O     -101.509       9.925    -179.024
  P     -102.820       9.161    -178.504
  C     -102.028       6.791    -179.308
  O     -102.424       7.632    -178.239
  C     -101.459       5.461    -178.787
  O     -100.106       5.697    -178.310
  C     -102.202       4.851    -177.602
  O     -101.850       3.466    -177.503
  C     -101.603       5.610    -176.437
  O     -101.835       4.941    -175.200
  C     -100.122       5.750    -176.858
  N      -99.489       7.000    -176.389
  C      -98.991       7.043    -175.088
  O      -99.048       6.100    -174.298
  N      -98.448       8.235    -174.689
  C      -98.318       9.352    -175.458
  O      -97.901      10.420    -175.023
  C      -98.730       9.210    -176.861
  C      -99.295       8.067    -177.252
  O     -103.757       9.106    -179.802
  O     -103.491       9.833    -177.354
  H     -101.271       5.395    -174.530
  H     -104.486       9.750    -179.717
  H      -98.145       8.300    -173.726
  H      -98.578      10.055    -177.520
  H      -99.624       7.953    -178.282
  H      -99.523       4.916    -176.473
  H     -102.066       6.598    -176.365
  H     -103.288       4.957    -177.646
  H     -101.396       4.748    -179.614
  H     -101.291       7.306    -179.932
  H     -102.893       6.588    -179.954
  P     -103.012       2.380    -177.686
  C     -101.364       1.089    -179.177
  O     -102.284       1.013    -178.106
  O     -104.163       2.791    -178.543
  O     -103.470       2.084    -176.176
  H     -104.352       1.672    -176.176
  H     -100.599       0.319    -179.038
  H     -100.876       2.067    -179.220
  H     -101.887       0.905    -180.120
  H     -100.742      11.543    -180.018
  H     -102.201      11.851    -179.106
  H     -102.281      10.965    -180.610

 3  4  5  6  7  8  9  10  11  12  13  23  28  29  30  31  32 0
 6-311+G(2d,p)
 ****
 33  34 0
 6-311+G(2d,p)
 ****
 1  2  14  15  16  17  18  19  20  21  22  24  25  26  27 0
 3-21G
 ****
 35  36  37  38  39  40  41  42  43  44  45 0
 3-21G
 ****


