%nproc=1
%NoSave
%Mem=1900MB
#P OB98/GEN NMR

erre ene a

0 1
  C     -507.845    -705.166    -190.788
  O     -507.765    -704.500    -189.546
  H     -507.492    -706.194    -190.656
  H     -507.203    -704.668    -191.526
  H     -508.882    -705.186    -191.146
  P     -508.394    -703.023    -189.471
  C     -508.740    -703.118    -186.869
  O     -508.140    -702.472    -187.986
  C     -507.937    -702.829    -185.604
  O     -506.574    -703.313    -185.727
  C     -507.769    -701.352    -185.304
  O     -508.968    -700.740    -184.863
  C     -506.674    -701.409    -184.236
  O     -507.212    -701.764    -182.959
  C     -505.772    -702.534    -184.790
  N     -504.562    -702.023    -185.420
  C     -503.641    -701.398    -184.561
  O     -503.875    -701.315    -183.363
  N     -502.507    -700.851    -185.111
  C     -502.282    -700.953    -186.370
  N     -501.137    -700.389    -186.849
  C     -503.202    -701.631    -187.313
  C     -504.316    -702.125    -186.772
  O     -509.970    -703.313    -189.477
  O     -507.931    -702.083    -190.538
  H     -506.497    -701.638    -182.309
  H     -510.251    -703.945    -188.787
  H     -502.968    -701.691    -188.369
  H     -505.045    -702.635    -187.387
  H     -505.480    -703.221    -183.986
  H     -506.175    -700.441    -184.114
  H     -507.362    -700.823    -186.180
  H     -508.407    -703.360    -184.766
  H     -500.527    -699.918    -186.178
  H     -508.815    -704.197    -187.039
  H     -500.865    -700.378    -187.825
  H     -509.762    -702.719    -186.767
  P     -509.689    -699.615    -185.757
  C     -511.937    -699.949    -184.540
  O     -510.889    -699.048    -184.852
  O     -510.100    -700.053    -187.112
  O     -508.639    -698.406    -185.738
  H     -508.432    -698.059    -184.852
  H     -512.667    -699.451    -183.937
  H     -511.540    -700.785    -184.003
  H     -512.395    -700.291    -185.445

 6  7  8  9  10  11  12  13  14  15  16  26  30  31  32  33  35 0
 6-311+G(2d,p)
 ****
 37  38 0
 6-311+G(2d,p)
 ****
 1  2  3  4  5  17  18  19  20  21  22  23  24  25 0
 3-21G
 ****
 27  28  29  34  36  39  40  41  42  43  44  45  46 0
 3-21G
 ****


