%nproc=1
%NoSave
%Mem=1900MB
#P OB98/GEN NMR

erre ene a

0 1
  C      841.747     619.831    -898.000
  O      842.514     620.132    -896.850
  H      840.816     619.365    -897.690
  H      842.307     619.141    -898.650
  H      841.518     620.747    -898.550
  P      843.852     621.000    -897.070
  C      842.681     623.160    -896.110
  O      843.359     622.530    -897.190
  C      842.222     624.562    -896.500
  O      841.237     624.443    -897.570
  C      841.605     625.356    -895.368
  O      841.962     626.736    -895.510
  C      840.108     625.204    -895.600
  O      839.363     626.235    -895.003
  C      840.040     625.162    -897.130
  N      838.833     624.528    -897.640
  C      838.256     625.102    -898.760
  O      838.726     626.111    -899.280
  N      837.086     624.565    -899.250
  C      836.514     623.579    -898.660
  N      835.365     623.104    -899.170
  C      837.078     622.959    -897.420
  C      838.228     623.466    -896.990
  O      844.252     620.610    -898.570
  O      844.917     620.751    -896.060
  H      839.854     627.092    -895.101
  H      843.496     620.602    -899.180
  H      836.585     622.125    -896.940
  H      838.719     623.057    -896.110
  H      840.118     626.179    -897.550
  H      839.756     624.247    -895.189
  H      841.919     625.000    -894.385
  H      843.093     625.100    -896.930
  H      834.992     623.587    -900.000
  H      843.329     623.213    -895.233
  H      834.811     622.373    -898.750
  H      841.820     622.543    -895.850
  P      843.434     627.209    -895.089
  C      844.450     627.445    -897.460
  O      844.486     626.766    -896.210
  O      843.831     626.926    -893.675
  O      843.359     628.816    -895.330
  H      843.817     629.236    -894.585
  H      845.205     627.045    -898.105
  H      844.630     628.488    -897.304
  H      843.489     627.312    -897.911

 6  7  8  9  10  11  12  13  14  15  16  26  30  31  32  33  35 0
 6-311+G(2d,p)
 ****
 37  38 0
 6-311+G(2d,p)
 ****
 1  2  3  4  5  17  18  19  20  21  22  23  24  25 0
 3-21G
 ****
 27  28  29  34  36  39  40  41  42  43  44  45  46 0
 3-21G
 ****


