%nproc=1
%NoSave
%Mem=1900MB
#P OB98/GEN NMR

erre ene a

0 1
  C     -559.890     149.453    -427.621
  O     -559.620     149.080    -426.284
  H     -559.766     148.595    -428.289
  H     -560.925     149.800    -427.683
  H     -559.224     150.259    -427.927
  P     -558.178     148.433    -426.005
  C     -557.120     150.795    -426.163
  O     -557.101     149.450    -426.627
  C     -555.997     151.025    -425.157
  O     -554.711     150.931    -425.827
  C     -555.996     152.398    -424.504
  O     -556.952     152.486    -423.454
  C     -554.567     152.467    -423.971
  O     -554.479     151.728    -422.737
  C     -553.772     151.734    -425.069
  N     -549.358     154.133    -426.169
  C     -549.701     153.293    -425.173
  N     -550.890     152.698    -424.929
  C     -551.784     153.038    -425.875
  C     -551.576     153.886    -426.953
  C     -550.306     154.447    -427.087
  N     -549.960     155.315    -428.109
  N     -552.724     153.987    -427.718
  C     -553.610     153.223    -427.113
  N     -553.095     152.634    -425.986
  O     -558.123     147.186    -427.010
  O     -557.920     148.014    -424.598
  H     -555.026     152.205    -422.085
  H     -557.633     146.457    -426.583
  H     -548.910     153.056    -424.465
  H     -554.630     153.067    -427.450
  H     -553.028     151.058    -424.640
  H     -554.230     153.480    -423.776
  H     -556.141     153.201    -425.249
  H     -556.044     150.233    -424.403
  H     -558.081     150.999    -425.676
  H     -548.993     155.528    -428.257
  H     -550.678     155.546    -428.793
  H     -557.001     151.465    -427.023
  P     -557.827     153.831    -423.351
  C     -559.762     152.613    -424.604
  O     -558.892     153.738    -424.557
  O     -556.807     154.966    -423.852
  O     -558.382     154.136    -422.013
  H     -557.068     155.828    -423.481
  H     -560.405     152.695    -425.455
  H     -560.353     152.582    -423.713
  H     -559.182     151.717    -424.679

 6  7  8  9  10  11  12  13  14  15  25  28  32  33  34  35 0
 6-311+G(2d,p)
 ****
 36  39  40 0
 6-311+G(2d,p)
 ****
 1  2  3  4  5  16  17  18  19  20  21  22  23  24 0
 3-21G
 ****
 26  27  29  30  31  37  38  41  42  43  44  45  46  47  48 0
 3-21G
 ****


