%nproc=1
%NoSave
%Mem=1900MB
#P OB98/GEN NMR

erre ene a

0 1
  C     -419.479     127.334     219.908
  O     -419.690     126.640     218.676
  P     -418.558     125.629     218.157
  C     -419.671     123.320     217.926
  O     -419.266     124.507     217.257
  C     -420.683     122.541     217.081
  O     -422.011     123.084     217.208
  C     -420.376     122.568     215.596
  O     -419.283     121.719     215.286
  C     -421.712     122.147     215.003
  O     -421.860     120.719     215.027
  C     -422.719     122.799     215.979
  N     -423.354     123.990     215.441
  C     -424.412     123.772     214.552
  O     -424.733     122.625     214.239
  N     -425.072     124.858     214.031
  C     -424.698     126.056     214.362
  N     -425.388     127.097     213.821
  C     -423.581     126.328     215.288
  C     -422.956     125.262     215.777
  O     -417.624     125.114     219.202
  O     -417.773     126.506     217.065
  H     -421.253     120.374     214.340
  H     -416.842     126.213     217.037
  H     -423.310     127.347     215.537
  H     -422.118     125.371     216.458
  H     -423.510     122.084     216.238
  H     -421.814     122.466     213.962
  H     -420.142     123.597     215.286
  H     -420.698     121.501     217.439
  H     -426.143     126.881     213.180
  H     -420.114     123.577     218.891
  H     -425.208     128.062     214.058
  H     -418.785     122.710     218.134
  P     -418.492     121.991     213.920
  C     -416.044     122.269     214.727
  O     -417.000     121.437     214.098
  O     -418.299     123.583     213.927
  O     -419.202     121.538     212.681
  H     -418.335     123.922     213.013
  H     -415.201     121.647     215.052
  H     -416.466     122.769     215.604
  H     -415.680     123.016     214.019
  H     -420.320     127.964     220.111
  H     -418.595     127.932     219.834
  H     -419.364     126.625     220.701

 3  4  5  6  7  8  9  10  11  12  13  23  27  28  29  30  32 0
 6-311+G(2d,p)
 ****
 34  35 0
 6-311+G(2d,p)
 ****
 1  2  14  15  16  17  18  19  20  21  22  24  25  26 0
 3-21G
 ****
 31  33  36  37  38  39  40  41  42  43  44  45  46 0
 3-21G
 ****


