%nproc=1
%NoSave
%Mem=1900MB
#P OB98/GEN NMR

erre ene a

0 1
  C     -376.990     493.673     -57.324
  O     -376.494     494.208     -56.107
  H     -377.448     492.705     -57.108
  H     -376.166     493.523     -58.024
  H     -377.740     494.335     -57.757
  P     -375.760     495.634     -56.209
  C     -373.546     496.465     -57.290
  O     -374.476     495.404     -57.161
  C     -372.118     495.932     -57.225
  O     -371.909     494.941     -58.240
  C     -371.032     496.996     -57.427
  O     -370.781     497.694     -56.212
  C     -369.859     496.149     -57.868
  O     -369.195     495.527     -56.736
  C     -370.549     495.083     -58.753
  N     -368.326     494.384     -63.232
  C     -368.051     493.808     -62.013
  N     -366.997     492.971     -61.951
  N     -368.739     494.060     -60.927
  C     -369.755     494.940     -61.123
  C     -370.131     495.556     -62.306
  C     -369.377     495.259     -63.496
  O     -369.610     495.672     -64.627
  N     -371.216     496.384     -62.096
  C     -371.464     496.291     -60.809
  N     -370.600     495.446     -60.165
  O     -375.093     495.813     -54.755
  O     -376.628     496.786     -56.566
  H     -369.806     494.924     -56.308
  H     -375.064     496.763     -54.536
  H     -367.761     494.132     -64.034
  H     -372.252     496.812     -60.286
  H     -370.062     494.114     -58.686
  H     -369.106     496.746     -58.389
  H     -366.248     493.008     -62.637
  H     -371.328     497.698     -58.218
  H     -366.770     492.572     -61.045
  H     -371.993     495.448     -56.248
  H     -373.710     497.181     -56.477
  H     -373.720     496.982     -58.244
  P     -370.137     499.176     -56.323
  C     -367.824     500.119     -57.001
  O     -368.615     498.970     -56.722
  O     -370.062     499.654     -54.792
  O     -370.919     500.127     -57.175
  H     -369.947     500.622     -54.761
  H     -366.829     499.815     -57.252
  H     -367.797     500.751     -56.138
  H     -368.251     500.655     -57.823

 6  7  8  9  10  11  12  13  14  15  26  29  33  34 0
 6-311+G(2d,p)
 ****
 36  38  39  40  41 0
 6-311+G(2d,p)
 ****
 1  2  3  4  5  16  17  18  19  20  21  22  23  24  25 0
 3-21G
 ****
 27  28  30  31  32  35  37  42  43  44  45  46  47 0
 3-21G
 ****
 48  49 0
 3-21G
 ****


