%nproc=1
%NoSave
%Mem=1900MB
#P OB98/GEN NMR

erre ene a

0 1
  C      145.281     315.544    -870.417
  O      146.691     315.549    -870.331
  P      147.496     314.316    -869.698
  C      148.425     313.641    -871.999
  O      147.648     313.237    -870.883
  C      149.401     312.544    -872.424
  O      150.392     312.346    -871.380
  C      148.755     311.182    -872.710
  O      149.516     310.586    -873.763
  C      148.968     310.438    -871.403
  O      148.850     309.027    -871.554
  C      150.360     310.948    -871.012
  N      150.632     310.744    -869.592
  C      150.989     309.452    -869.202
  O      150.981     308.532    -870.023
  N      151.285     309.215    -867.884
  C      151.143     310.167    -867.012
  N      151.456     309.876    -865.720
  C      150.644     311.513    -867.363
  C      150.424     311.737    -868.663
  O      146.931     313.774    -868.428
  O      148.987     314.877    -869.549
  H      149.554     308.722    -872.162
  H      149.053     315.473    -868.760
  H      150.486     312.260    -866.599
  H      150.068     312.685    -869.017
  H      151.136     310.442    -871.591
  H      148.221     310.756    -870.668
  H      147.697     311.248    -872.986
  H      149.936     312.892    -873.318
  H      151.803     308.952    -865.529
  H      148.994     314.529    -871.718
  H      151.452     310.567    -864.984
  H      147.762     313.916    -872.835
  P      148.811     309.699    -874.903
  C      148.771     311.610    -876.599
  O      147.995     310.702    -875.833
  O      148.033     308.526    -874.395
  O      150.025     309.232    -875.843
  H      149.733     308.491    -876.404
  H      148.140     312.038    -877.387
  H      149.624     311.110    -877.060
  H      149.124     312.421    -875.955
  H      144.948     316.455    -870.868
  H      144.864     315.459    -869.435
  H      144.963     314.714    -871.013

 3  4  5  6  7  8  9  10  11  12  13  23  27  28  29  30  32 0
 6-311+G(2d,p)
 ****
 34  35 0
 6-311+G(2d,p)
 ****
 1  2  14  15  16  17  18  19  20  21  22  24  25  26 0
 3-21G
 ****
 31  33  36  37  38  39  40  41  42  43  44  45  46 0
 3-21G
 ****


