%nproc=1
%NoSave
%Mem=1900MB
#P OB98/GEN NMR

erre ene a

0 1
  C       31.350     539.310    -401.930
  O       30.509     538.214    -401.605
  P       29.132     538.417    -400.809
  C       27.643     537.259    -402.578
  O       28.187     537.206    -401.266
  C       26.802     535.997    -402.852
  O       27.681     534.856    -402.904
  C       25.727     535.708    -401.797
  O       24.591     535.143    -402.476
  C       26.386     534.682    -400.909
  O       25.460     533.904    -400.175
  C       27.199     533.876    -401.948
  N       28.302     533.135    -401.337
  C       27.957     532.124    -400.438
  O       26.787     531.897    -400.145
  N       28.972     531.378    -399.873
  C       30.209     531.679    -400.138
  N       31.184     530.882    -399.602
  C       30.606     532.808    -401.006
  C       29.612     533.461    -401.583
  O       28.523     539.771    -400.944
  O       29.480     538.011    -399.302
  H       25.879     533.031    -399.970
  H       29.869     538.755    -398.777
  H       31.655     533.031    -401.158
  H       29.799     534.280    -402.252
  H       26.536     533.186    -402.496
  H       27.047     535.176    -400.187
  H       25.410     536.614    -401.262
  H       26.342     536.107    -403.841
  H       30.868     530.026    -399.147
  H       28.470     537.297    -403.290
  H       32.110     530.847    -400.007
  H       27.038     538.163    -402.691
  P       23.191     535.944    -402.412
  C       22.328     534.408    -404.336
  O       22.071     535.000    -403.073
  O       23.396     537.050    -403.557
  O       22.850     536.595    -401.123
  H       22.837     537.825    -403.360
  H       21.467     533.790    -404.627
  H       23.211     533.751    -404.276
  H       22.493     535.175    -405.091
  H       32.211     538.955    -402.458
  H       31.660     539.801    -401.031
  H       30.814     540.001    -402.546

 3  4  5  6  7  8  9  10  11  12  13  23  27  28  29  30  32 0
 6-311+G(2d,p)
 ****
 34  35 0
 6-311+G(2d,p)
 ****
 1  2  14  15  16  17  18  19  20  21  22  24  25  26 0
 3-21G
 ****
 31  33  36  37  38  39  40  41  42  43  44  45  46 0
 3-21G
 ****


