%nproc=1
%NoSave
%Mem=1900MB
#P OB98/GEN NMR

erre ene a

0 1
  C      -53.475    -899.420    -560.611
  O      -54.017    -898.170    -560.989
  H      -54.217    -899.970    -560.030
  H      -52.572    -899.290    -560.014
  H      -53.239    -900.000    -561.516
  P      -53.082    -897.120    -561.765
  C      -54.949    -895.640    -562.750
  O      -53.931    -896.590    -563.013
  C      -56.328    -896.220    -563.110
  O      -56.664    -897.290    -562.174
  C      -57.478    -895.170    -563.047
  O      -58.461    -895.570    -563.987
  C      -57.985    -895.390    -561.618
  O      -59.227    -894.790    -561.419
  C      -57.920    -896.920    -561.527
  N      -57.976    -897.380    -560.147
  C      -59.101    -896.980    -559.426
  O      -59.972    -896.280    -559.956
  N      -59.237    -897.390    -558.113
  C      -58.254    -898.080    -557.559
  N      -58.430    -898.420    -556.257
  C      -57.012    -898.480    -558.269
  C      -56.950    -898.080    -559.562
  O      -51.707    -897.610    -562.089
  O      -53.033    -895.850    -560.788
  H      -59.578    -894.990    -560.531
  H      -52.167    -895.810    -560.328
  H      -56.251    -899.010    -557.755
  H      -56.085    -898.340    -560.163
  H      -58.721    -897.380    -562.089
  H      -57.304    -894.930    -560.879
  H      -57.141    -894.150    -563.233
  H      -56.271    -896.670    -564.089
  H      -59.270    -898.120    -555.804
  H      -54.737    -894.750    -563.368
  H      -57.746    -898.920    -555.723
  H      -54.943    -895.350    -561.691
  P      -58.210    -895.480    -565.577
  C      -58.088    -897.930    -566.414
  O      -57.343    -896.750    -566.045
  O      -57.649    -894.180    -566.036
  O      -59.659    -895.740    -566.240
  H      -59.703    -895.270    -567.082
  H      -57.409    -898.704    -566.706
  H      -58.739    -897.700    -567.232
  H      -58.669    -898.261    -565.578

 6  7  8  9  10  11  12  13  14  15  16  26  30  31  32  33  35 0
 6-311+G(2d,p)
 ****
 37  38 0
 6-311+G(2d,p)
 ****
 1  2  3  4  5  17  18  19  20  21  22  23  24  25 0
 3-21G
 ****
 27  28  29  34  36  39  40  41  42  43  44  45  46 0
 3-21G
 ****


