%nproc=1
%NoSave
%Mem=1900MB
#P OB98/GEN NMR

erre ene a

0 1
  C      483.087     576.906    -250.716
  O      484.170     577.232    -249.868
  H      482.612     577.832    -251.051
  H      482.350     576.311    -250.164
  H      483.437     576.348    -251.589
  P      485.114     576.024    -249.405
  C      485.681     577.117    -247.088
  O      486.138     576.654    -248.344
  C      486.830     577.726    -246.277
  O      487.913     576.757    -246.214
  C      487.397     579.008    -246.879
  O      487.782     579.880    -245.813
  C      488.639     578.539    -247.624
  O      489.585     579.593    -247.809
  C      489.109     577.390    -246.712
  N      489.967     576.447    -247.412
  C      491.080     576.976    -248.082
  O      491.286     578.189    -248.070
  N      491.903     576.126    -248.784
  C      491.610     574.866    -248.860
  N      492.448     574.081    -249.595
  C      490.419     574.269    -248.214
  C      489.666     575.105    -247.518
  O      486.020     575.793    -250.707
  O      484.383     574.809    -248.940
  H      490.121     579.675    -246.993
  H      486.345     576.621    -251.101
  H      490.212     573.211    -248.324
  H      488.772     574.752    -246.992
  H      489.669     577.791    -245.849
  H      488.366     578.154    -248.609
  H      486.684     579.529    -247.526
  H      486.486     577.888    -245.253
  H      493.237     574.542    -250.035
  H      485.227     576.297    -246.516
  H      492.291     573.101    -249.774
  H      484.902     577.874    -247.264
  P      486.990     581.257    -245.588
  C      489.158     582.450    -244.800
  O      487.786     582.154    -244.512
  O      485.526     581.121    -245.338
  O      487.261     582.046    -246.960
  H      486.432     582.496    -247.215
  H      489.567     583.048    -244.012
  H      489.221     582.986    -245.724
  H      489.711     581.537    -244.879

 6  7  8  9  10  11  12  13  14  15  16  26  30  31  32  33  35 0
 6-311+G(2d,p)
 ****
 37  38 0
 6-311+G(2d,p)
 ****
 1  2  3  4  5  17  18  19  20  21  22  23  24  25 0
 3-21G
 ****
 27  28  29  34  36  39  40  41  42  43  44  45  46 0
 3-21G
 ****


