%nproc=1
%NoSave
%Mem=1900MB
#P OB98/GEN NMR

erre ene a

0 1
  C     -546.709    -339.460     953.271
  O     -545.793    -340.434     952.814
  H     -547.087    -338.910     952.406
  H     -546.211    -338.758     953.944
  H     -547.554    -339.936     953.779
  P     -545.035    -341.350     953.893
  C     -542.718    -340.305     953.426
  O     -543.515    -341.485     953.400
  C     -541.421    -340.520     952.643
  O     -540.719    -341.637     953.253
  C     -541.675    -340.867     951.162
  O     -540.956    -340.030     950.267
  C     -541.413    -342.364     951.106
  O     -541.017    -342.839     949.840
  C     -540.393    -342.585     952.226
  N     -540.385    -343.947     952.763
  C     -539.375    -344.801     952.326
  O     -538.484    -344.506     951.538
  N     -539.414    -346.074     952.847
  C     -540.342    -346.557     953.717
  O     -540.319    -347.703     954.152
  C     -541.397    -345.614     954.130
  C     -541.373    -344.372     953.628
  O     -545.710    -342.639     954.224
  O     -544.916    -340.407     955.186
  H     -540.228    -342.316     949.570
  H     -545.562    -340.692     955.854
  H     -538.685    -346.698     952.549
  H     -542.162    -345.971     954.809
  H     -542.132    -343.648     953.905
  H     -539.383    -342.374     951.864
  H     -542.346    -342.894     951.365
  H     -542.723    -340.674     950.904
  H     -540.788    -339.633     952.748
  H     -542.501    -340.070     954.475
  H     -543.289    -339.470     952.988
  P     -541.618    -339.024     949.214
  C     -540.474    -339.788     946.964
  O     -540.601    -338.819     948.006
  O     -542.248    -337.805     949.780
  O     -542.793    -339.908     948.534
  H     -543.513    -339.282     948.303
  H     -539.741    -339.458     946.257
  H     -541.416    -339.908     946.471
  H     -540.169    -340.724     947.383

 6  7  8  9  10  11  12  13  14  15  16  26  31  32  33  34  35 0
 6-311+G(2d,p)
 ****
 36  37 0
 6-311+G(2d,p)
 ****
 1  2  3  4  5  17  18  19  20  21  22  23  24  25 0
 3-21G
 ****
 27  28  29  30  38  39  40  41  42  43  44  45 0
 3-21G
 ****


