%nproc=1
%NoSave
%Mem=1900MB
#P OB98/GEN NMR

erre ene a

0 1
  C      -85.158       6.606    -200.096
  O      -85.265       5.574    -201.058
  H      -84.492       7.382    -200.484
  H      -84.737       6.226    -199.161
  H      -86.139       7.048    -199.905
  P      -86.066       4.245    -200.658
  C      -85.060       3.509    -202.925
  O      -85.524       3.104    -201.642
  C      -84.607       2.293    -203.726
  O      -85.479       1.173    -203.469
  C      -84.651       2.516    -205.231
  O      -83.563       3.312    -205.655
  C      -84.650       1.086    -205.732
  O      -83.329       0.529    -205.721
  C      -85.551       0.391    -204.685
  N      -86.931       0.247    -205.134
  C      -87.163      -0.739    -206.100
  O      -86.236      -1.429    -206.520
  N      -88.440      -0.895    -206.578
  C      -89.400      -0.153    -206.124
  N      -90.640      -0.361    -206.641
  C      -89.200       0.886    -205.097
  C      -87.954       1.034    -204.654
  O      -87.559       4.349    -200.596
  O      -85.433       3.836    -199.245
  H      -82.982       0.686    -204.821
  H      -85.924       4.259    -198.517
  H      -90.031       1.478    -204.745
  H      -87.720       1.775    -203.897
  H      -85.163      -0.606    -204.443
  H      -85.029       1.018    -206.750
  H      -85.602       2.976    -205.517
  H      -83.598       2.017    -203.396
  H      -90.729      -1.078    -207.352
  H      -84.219       4.191    -202.764
  H      -91.474       0.094    -206.303
  H      -85.845       4.048    -203.467
  P      -83.799       4.566    -206.626
  C      -81.386       5.177    -205.951
  O      -82.330       5.085    -207.016
  O      -84.730       5.609    -206.106
  O      -84.306       3.882    -207.983
  H      -85.239       3.566    -207.901
  H      -80.451       5.532    -206.332
  H      -81.248       4.211    -205.512
  H      -81.750       5.857    -205.210

 6  7  8  9  10  11  12  13  14  15  16  26  30  31  32  33  35 0
 6-311+G(2d,p)
 ****
 37  38 0
 6-311+G(2d,p)
 ****
 1  2  3  4  5  17  18  19  20  21  22  23  24  25 0
 3-21G
 ****
 27  28  29  34  36  39  40  41  42  43  44  45  46 0
 3-21G
 ****


