%nproc=1
%NoSave
%Mem=1900MB
#P OB98/GEN NMR

erre ene a

0 1
  C     -171.068    -361.361    1186.786
  O     -171.368    -360.115    1186.186
  H     -169.981    -361.448    1186.870
  H     -171.442    -362.179    1186.174
  H     -171.510    -361.413    1187.792
  P     -172.917    -359.698    1186.120
  C     -174.179    -357.388    1185.977
  O     -172.984    -358.106    1186.323
  C     -174.344    -356.187    1186.909
  O     -174.304    -356.605    1188.291
  C     -173.251    -355.157    1186.795
  O     -173.312    -354.410    1185.597
  C     -173.512    -354.334    1188.057
  O     -174.603    -353.413    1187.849
  C     -173.913    -355.440    1189.064
  N     -172.838    -355.745    1190.022
  C     -172.984    -355.186    1191.299
  O     -173.959    -354.500    1191.580
  N     -171.984    -355.392    1192.217
  C     -170.949    -356.110    1191.895
  N     -169.990    -356.282    1192.851
  C     -170.773    -356.743    1190.576
  C     -171.740    -356.516    1189.688
  O     -173.494    -360.272    1187.500
  O     -173.648    -360.168    1184.893
  H     -174.357    -352.857    1187.072
  H     -172.990    -359.966    1188.274
  H     -169.892    -357.345    1190.349
  H     -171.676    -356.933    1188.681
  H     -174.793    -355.131    1189.655
  H     -172.656    -353.740    1188.347
  H     -172.264    -355.630    1186.919
  H     -175.340    -355.752    1186.727
  H     -170.131    -355.820    1193.745
  H     -175.043    -358.049    1186.012
  H     -169.117    -356.803    1192.711
  H     -174.059    -357.041    1184.940
  P     -171.979    -353.773    1184.949
  C     -170.900    -353.738    1182.620
  O     -172.075    -354.028    1183.390
  O     -170.686    -354.226    1185.583
  O     -172.235    -352.196    1185.079
  H     -173.015    -351.873    1184.606
  H     -171.089    -353.949    1181.588
  H     -170.089    -354.344    1182.966
  H     -170.646    -352.705    1182.732

 6  7  8  9  10  11  12  13  14  15  16  26  30  31  32  33  35 0
 6-311+G(2d,p)
 ****
 37  38 0
 6-311+G(2d,p)
 ****
 1  2  3  4  5  17  18  19  20  21  22  23  24  25 0
 3-21G
 ****
 27  28  29  34  36  39  40  41  42  43  44  45  46 0
 3-21G
 ****


