%nproc=1
%NoSave
%Mem=1900MB
#P OB98/GEN NMR

erre ene a

0 1
  C     -167.725     617.379    -183.531
  O     -167.347     618.094    -184.705
  P     -166.176     619.180    -184.564
  C     -167.799     621.213    -184.895
  O     -166.649     620.510    -185.328
  C     -168.153     622.345    -185.878
  O     -166.951     623.119    -186.142
  C     -168.645     621.886    -187.250
  O     -169.319     622.979    -187.880
  C     -167.343     621.616    -187.971
  O     -167.526     621.573    -189.385
  C     -166.434     622.750    -187.449
  N     -165.009     622.358    -187.333
  C     -164.040     623.242    -187.801
  O     -164.294     624.327    -188.317
  N     -162.739     622.815    -187.705
  C     -162.318     621.642    -187.159
  O     -161.153     621.265    -187.174
  C     -163.368     620.815    -186.549
  C     -164.638     621.197    -186.671
  O     -165.007     618.594    -185.488
  O     -165.726     619.403    -183.164
  H     -168.197     620.873    -189.564
  H     -164.293     618.224    -184.930
  H     -162.034     623.414    -188.108
  H     -163.067     619.908    -186.037
  H     -165.434     620.582    -186.243
  H     -166.477     623.628    -188.102
  H     -166.945     620.650    -187.666
  H     -169.296     621.013    -187.228
  H     -168.882     623.018    -185.412
  H     -167.634     621.620    -183.898
  H     -168.645     620.523    -184.819
  P     -170.845     623.260    -187.470
  C     -171.819     622.672    -189.773
  O     -171.602     623.687    -188.809
  O     -171.053     624.152    -186.287
  O     -171.420     621.783    -187.200
  H     -172.231     621.837    -186.668
  H     -172.720     622.900    -190.336
  H     -171.930     621.691    -189.300
  H     -170.967     622.647    -190.459
  H     -168.511     616.693    -183.769
  H     -168.066     618.069    -182.788
  H     -166.881     616.839    -183.155

 3  4  5  6  7  8  9  10  11  12  13  23  28  29  30  31  32 0
 6-311+G(2d,p)
 ****
 33  34 0
 6-311+G(2d,p)
 ****
 1  2  14  15  16  17  18  19  20  21  22  24  25  26  27 0
 3-21G
 ****
 35  36  37  38  39  40  41  42  43  44  45 0
 3-21G
 ****


