%nproc=1
%NoSave
%Mem=1900MB
#P OB98/GEN NMR

erre ene a

0 1
  C       33.286    -227.671     376.870
  O       32.000    -228.145     376.521
  P       31.029    -228.775     377.627
  C       32.548    -230.410     378.888
  O       31.528    -230.278     377.909
  C       32.708    -231.864     379.333
  O       33.852    -231.963     380.226
  C       31.497    -232.444     380.076
  O       31.423    -233.832     379.727
  C       31.900    -232.309     381.537
  O       31.174    -233.178     382.396
  C       33.391    -232.608     381.436
  N       34.909    -233.608     386.216
  C       34.119    -234.294     385.364
  N       33.738    -233.947     384.117
  C       34.270    -232.762     383.768
  C       35.070    -231.929     384.542
  C       35.407    -232.408     385.822
  N       36.240    -231.736     386.692
  N       35.364    -230.770     383.853
  C       34.756    -230.895     382.692
  N       34.136    -232.113     382.570
  O       29.569    -228.643     377.347
  O       31.428    -228.005     378.975
  H       31.467    -233.019     383.316
  H       30.731    -227.360     379.204
  H       33.745    -235.245     385.729
  H       34.729    -230.151     381.911
  H       33.591    -233.683     381.342
  H       31.720    -231.278     381.874
  H       30.549    -231.940     379.853
  H       32.937    -232.469     378.446
  H       32.268    -229.798     379.751
  H       36.523    -232.229     387.524
  H       36.827    -230.988     386.332
  H       33.499    -230.031     378.488
  P       30.129    -234.401     378.966
  C       28.380    -234.323     380.838
  O       29.242    -235.147     380.066
  O       30.410    -235.186     377.727
  O       29.273    -233.078     378.650
  H       28.616    -233.275     377.950
  H       28.957    -233.840     381.634
  H       27.600    -234.940     381.284
  H       27.914    -233.554     380.212
  H       33.775    -227.291     375.997
  H       33.862    -228.473     377.281
  H       33.194    -226.890     377.596

 3  4  5  6  7  8  9  10  11  12  22  25  29  30  31  32 0
 6-311+G(2d,p)
 ****
 33  36  37 0
 6-311+G(2d,p)
 ****
 1  2  13  14  15  16  17  18  19  20  21  23  24  26 0
 3-21G
 ****
 27  28  34  35  38  39  40  41  42  43  44  45  46  47  48 0
 3-21G
 ****


