%nproc=1
%NoSave
%Mem=1900MB
#P OB98/GEN NMR

erre ene a

0 1
  C       45.757     -38.716      17.340
  O       46.262     -38.264      18.577
  H       45.104     -39.573      17.523
  H       46.584     -39.035      16.700
  H       45.181     -37.938      16.834
  P       46.874     -36.789      18.665
  C       44.702     -35.460      19.080
  O       45.746     -35.761      18.164
  C       44.170     -34.038      18.892
  O       43.137     -33.760      19.863
  C       45.251     -32.980      19.111
  O       46.068     -32.707      17.987
  C       44.420     -31.759      19.492
  O       43.967     -31.062      18.320
  C       43.236     -32.376      20.241
  N       43.656     -29.288      24.288
  C       43.636     -28.963      22.946
  N       43.809     -27.658      22.644
  N       43.481     -29.845      21.994
  C       43.417     -31.121      22.441
  C       43.439     -31.566      23.744
  C       43.556     -30.575      24.794
  O       43.586     -30.810      25.997
  N       43.347     -32.935      23.810
  C       43.345     -33.320      22.550
  N       43.359     -32.254      21.682
  O       47.935     -36.749      17.463
  O       47.524     -36.441      19.969
  H       44.741     -30.670      17.878
  H       48.635     -36.101      17.660
  H       43.750     -28.564      24.979
  H       43.308     -34.350      22.213
  H       42.290     -31.899      19.957
  H       45.000     -31.043      20.082
  H       44.048     -26.963      23.334
  H       45.880     -33.248      19.966
  H       44.066     -27.420      21.685
  H       43.714     -33.952      17.900
  H       45.120     -35.572      20.082
  H       43.891     -36.187      18.983
  P       47.450     -31.922      18.173
  C       48.753     -33.976      17.249
  O       48.605     -33.027      18.282
  O       47.333     -31.345      19.660
  O       47.699     -30.843      17.176
  H       47.018     -30.421      19.639
  H       49.565     -34.633      17.482
  H       48.955     -33.471      16.327
  H       47.851     -34.544      17.154

 6  7  8  9  10  11  12  13  14  15  26  29  33  34 0
 6-311+G(2d,p)
 ****
 36  38  39  40  41 0
 6-311+G(2d,p)
 ****
 1  2  3  4  5  16  17  18  19  20  21  22  23  24  25 0
 3-21G
 ****
 27  28  30  31  32  35  37  42  43  44  45  46  47 0
 3-21G
 ****
 48  49 0
 3-21G
 ****


