%nproc=1
%NoSave
%Mem=1900MB
#P OB98/GEN NMR

erre ene a

0 1
  C       34.945    -240.322     143.849
  O       35.771    -239.745     142.855
  P       35.329    -238.413     142.082
  C       35.486    -239.708     139.861
  O       34.654    -238.930     140.716
  C       34.718    -240.921     139.348
  O       34.004    -241.518     140.461
  C       33.649    -240.641     138.291
  O       34.136    -240.562     136.967
  C       32.771    -241.876     138.432
  O       33.387    -242.988     137.753
  C       32.784    -242.111     139.951
  N       28.287    -243.047     142.212
  C       29.217    -243.865     141.677
  N       30.385    -243.540     141.070
  C       30.567    -242.212     141.098
  C       29.709    -241.247     141.611
  C       28.519    -241.715     142.194
  N       27.583    -240.875     142.761
  N       30.235    -239.977     141.433
  C       31.393    -240.180     140.828
  N       31.640    -241.509     140.613
  O       36.409    -237.395     141.926
  O       34.080    -237.866     142.914
  H       32.751    -243.730     137.791
  H       33.904    -236.930     142.684
  H       28.999    -244.932     141.735
  H       32.063    -239.404     140.534
  H       32.803    -243.181     140.212
  H       31.777    -241.745     138.004
  H       33.057    -239.749     138.555
  H       35.445    -241.664     138.978
  H       36.355    -240.055     140.441
  H       26.822    -241.300     143.273
  H       27.829    -239.905     142.895
  H       35.854    -239.093     139.033
  P       33.974    -239.151     136.203
  C       33.679    -240.316     133.879
  O       33.139    -239.472     134.873
  O       35.254    -238.405     135.996
  O       32.911    -238.366     137.121
  H       32.020    -238.743     137.130
  H       32.899    -240.543     133.142
  H       34.026    -241.258     134.309
  H       34.506    -239.819     133.368
  H       35.417    -241.199     144.240
  H       34.002    -240.587     143.419
  H       34.792    -239.617     144.639

 3  4  5  6  7  8  9  10  11  12  22  25  29  30  31  32 0
 6-311+G(2d,p)
 ****
 33  36  37 0
 6-311+G(2d,p)
 ****
 1  2  13  14  15  16  17  18  19  20  21  23  24  26 0
 3-21G
 ****
 27  28  34  35  38  39  40  41  42  43  44  45  46  47  48 0
 3-21G
 ****


