%nproc=1
%NoSave
%Mem=1900MB
#P OB98/GEN NMR

erre ene a

0 1
  C      211.434    -291.907    -137.148
  O      212.752    -291.362    -137.290
  P      213.348    -290.514    -136.063
  C      214.397    -292.493    -134.732
  O      213.407    -291.472    -134.776
  C      215.691    -291.960    -134.128
  O      215.516    -291.597    -132.742
  C      216.824    -292.974    -134.136
  O      217.398    -293.074    -135.427
  C      217.774    -292.407    -133.086
  O      218.726    -291.501    -133.660
  C      216.816    -291.661    -132.118
  N      216.743    -292.282    -130.808
  C      217.757    -291.922    -129.904
  O      218.646    -291.149    -130.247
  N      217.735    -292.476    -128.647
  C      216.808    -293.337    -128.327
  N      216.851    -293.849    -127.073
  C      215.744    -293.750    -129.252
  C      215.774    -293.192    -130.472
  O      212.164    -289.497    -135.717
  O      214.615    -289.798    -136.388
  H      218.987    -291.892    -134.515
  H      212.530    -288.657    -135.391
  H      214.998    -294.476    -128.953
  H      215.025    -293.444    -131.220
  H      217.145    -290.621    -131.989
  H      218.343    -293.199    -132.591
  H      216.448    -293.956    -133.801
  H      215.989    -291.064    -134.690
  H      217.595    -293.536    -126.463
  H      214.584    -292.888    -135.735
  H      216.182    -294.529    -126.723
  H      213.996    -293.333    -134.131
  P      217.621    -294.533    -136.039
  C      215.660    -294.607    -137.709
  O      216.145    -295.035    -136.452
  O      217.900    -295.410    -134.724
  O      218.684    -294.696    -137.064
  H      218.150    -296.318    -134.973
  H      214.759    -295.178    -137.964
  H      216.417    -294.788    -138.493
  H      215.406    -293.542    -137.674
  H      211.172    -292.442    -138.036
  H      210.735    -291.113    -136.991
  H      211.412    -292.573    -136.311

 3  4  5  6  7  8  9  10  11  12  13  21  23  27  28  29  30  32 0
 6-311+G(2d,p)
 ****
 34  35 0
 6-311+G(2d,p)
 ****
 1  2  14  15  16  17  18  19  20  22  24  25  26 0
 3-21G
 ****
 31  33  36  37  38  39  40  41  42  43  44  45  46 0
 3-21G
 ****


