%nproc=1
%NoSave
%Mem=1900MB
#P OB98/GEN NMR

erre ene a

0 1
  C      -49.341      20.199     236.849
  O      -50.382      20.817     237.586
  P      -51.415      19.917     238.411
  C      -53.131      20.176     236.511
  O      -52.440      19.265     237.360
  C      -54.160      19.435     235.660
  O      -53.529      18.359     234.934
  C      -55.278      18.785     236.467
  O      -56.221      19.748     236.891
  C      -55.814      17.766     235.462
  O      -56.720      18.397     234.537
  C      -54.526      17.324     234.745
  N      -54.653      12.271     234.044
  C      -55.386      13.275     233.510
  N      -55.318      14.601     233.777
  C      -54.390      14.842     234.721
  C      -53.587      13.920     235.383
  C      -53.727      12.571     234.993
  N      -52.942      11.548     235.483
  N      -52.779      14.551     236.306
  C      -53.099      15.833     236.211
  N      -54.017      16.058     235.227
  O      -52.053      20.590     239.583
  O      -50.539      18.663     238.884
  H      -56.792      17.813     233.759
  H      -50.526      18.624     239.860
  H      -56.117      12.975     232.766
  H      -52.679      16.625     236.820
  H      -54.680      17.232     233.662
  H      -56.356      16.946     235.946
  H      -54.856      18.250     237.327
  H      -54.573      20.142     234.927
  H      -52.401      20.673     235.860
  H      -53.027      10.658     235.029
  H      -52.071      11.797     235.943
  H      -53.631      20.941     237.122
  P      -57.005      19.545     238.278
  C      -58.974      18.271     237.237
  O      -57.876      18.206     238.130
  O      -57.751      20.738     238.785
  O      -55.847      19.101     239.298
  H      -56.064      19.426     240.194
  H      -59.807      18.794     237.719
  H      -59.290      17.249     236.993
  H      -58.702      18.786     236.311
  H      -48.753      20.950     236.364
  H      -49.763      19.547     236.113
  H      -48.721      19.634     237.513

 3  4  5  6  7  8  9  10  11  12  22  25  29  30  31  32 0
 6-311+G(2d,p)
 ****
 33  36  37 0
 6-311+G(2d,p)
 ****
 1  2  13  14  15  16  17  18  19  20  21  23  24  26 0
 3-21G
 ****
 27  28  34  35  38  39  40  41  42  43  44  45  46  47  48 0
 3-21G
 ****


