%nproc=1
%NoSave
%Mem=1900MB
#P OB98/GEN NMR

erre ene a

0 1
  C      582.400     222.400    -650.783
  O      582.048     222.914    -652.052
  H      582.581     223.220    -650.083
  H      581.569     221.796    -650.406
  H      583.286     221.768    -650.860
  P      583.144     223.828    -652.792
  C      581.138     224.856    -654.087
  O      582.339     225.093    -653.363
  C      580.670     226.156    -654.742
  O      580.525     227.195    -653.752
  C      581.637     226.713    -655.780
  O      581.502     226.067    -657.040
  C      581.169     228.153    -655.851
  O      579.961     228.238    -656.634
  C      580.877     228.457    -654.377
  N      582.505     232.522    -651.731
  C      581.333     232.248    -652.334
  N      580.978     231.147    -653.020
  C      581.986     230.268    -653.056
  C      583.247     230.405    -652.499
  C      583.499     231.600    -651.798
  N      584.706     231.885    -651.194
  N      584.037     229.305    -652.780
  C      583.247     228.496    -653.462
  N      582.003     229.037    -653.670
  O      583.495     222.996    -654.114
  O      584.356     224.166    -651.991
  H      580.140     227.777    -657.475
  H      584.357     223.277    -654.469
  H      580.569     233.024    -652.242
  H      583.529     227.526    -653.837
  H      580.021     229.141    -654.253
  H      581.900     228.819    -656.320
  H      582.678     226.685    -655.428
  H      579.682     225.973    -655.187
  H      580.363     224.505    -653.396
  H      584.839     232.836    -650.883
  H      585.486     231.274    -651.376
  H      581.315     224.088    -654.844
  P      582.779     225.268    -657.599
  C      581.672     225.375    -659.959
  O      582.843     225.596    -659.169
  O      582.302     223.743    -657.553
  O      584.043     225.493    -656.832
  H      583.067     223.145    -657.467
  H      581.873     225.639    -660.976
  H      580.871     225.978    -659.586
  H      581.396     224.343    -659.906

 6  7  8  9  10  11  12  13  14  15  25  28  32  33  34  35 0
 6-311+G(2d,p)
 ****
 36  39  40 0
 6-311+G(2d,p)
 ****
 1  2  3  4  5  16  17  18  19  20  21  22  23  24 0
 3-21G
 ****
 26  27  29  30  31  37  38  41  42  43  44  45  46  47 0
 3-21G
 ****
 48 0
 3-21G
 ****


