%nproc=1
%NoSave
%Mem=1900MB
#P OB98/GEN NMR

erre ene a

0 1
  C       61.498     115.928     385.660
  O       61.957     116.126     386.979
  H       61.502     114.857     385.442
  H       62.161     116.433     384.952
  H       60.479     116.307     385.551
  P       62.007     117.639     387.521
  C       60.977     116.796     389.758
  O       62.035     117.503     389.124
  C       61.318     115.307     389.866
  O       62.492     115.148     390.699
  C       60.194     114.471     390.480
  O       60.052     113.254     389.743
  C       60.666     114.191     391.895
  O       60.104     112.995     392.427
  C       62.190     114.187     391.727
  N       62.876     114.507     392.977
  C       63.323     113.431     393.747
  O       63.120     112.274     393.373
  N       63.937     113.686     394.947
  C       64.042     114.906     395.370
  N       64.641     115.090     396.578
  C       63.543     116.069     394.613
  C       62.982     115.801     393.436
  O       60.535     118.178     387.214
  O       63.096     118.483     386.949
  H       60.550     112.232     391.995
  H       60.484     119.161     387.300
  H       63.640     117.069     395.017
  H       62.585     116.594     392.809
  H       62.537     113.201     391.379
  H       60.366     115.021     392.548
  H       59.235     114.989     390.487
  H       61.589     114.938     388.870
  H       64.961     114.267     397.073
  H       60.062     116.920     389.169
  H       64.749     115.993     397.018
  H       60.817     117.210     390.759
  P       58.926     113.250     388.600
  C       60.390     111.966     386.891
  O       59.198     111.979     387.658
  O       59.318     114.501     387.683
  O       57.535     113.347     389.133
  H       58.766     115.273     387.905
  H       60.435     111.064     386.317
  H       61.235     112.015     387.545
  H       60.399     112.809     386.232

 6  7  8  9  10  11  12  13  14  15  16  26  30  31  32  33  35 0
 6-311+G(2d,p)
 ****
 37  38 0
 6-311+G(2d,p)
 ****
 1  2  3  4  5  17  18  19  20  21  22  23  24  25 0
 3-21G
 ****
 27  28  29  34  36  39  40  41  42  43  44  45  46 0
 3-21G
 ****


