%nproc=1
%NoSave
%Mem=1900MB
#P OB98/GEN NMR

erre ene a

0 1
  C     -145.614     182.123    -247.733
  O     -145.294     183.466    -247.423
  H     -146.636     181.925    -247.398
  H     -144.934     181.441    -247.219
  H     -145.561     181.965    -248.813
  P     -143.814     183.956    -247.802
  C     -144.834     186.057    -248.916
  O     -144.022     184.903    -249.082
  C     -145.783     186.215    -250.105
  O     -146.631     185.060    -250.220
  C     -146.714     187.418    -250.007
  O     -146.053     188.594    -250.456
  C     -147.822     187.006    -250.964
  O     -147.418     187.275    -252.322
  C     -147.919     185.487    -250.740
  N     -152.282     182.828    -250.245
  C     -151.582     183.210    -251.335
  N     -150.466     183.963    -251.395
  C     -150.062     184.320    -250.166
  C     -150.672     184.003    -248.961
  C     -151.833     183.217    -249.026
  N     -152.548     182.830    -247.911
  N     -149.979     184.547    -247.901
  C     -148.931     185.129    -248.453
  N     -148.957     185.051    -249.822
  O     -142.789     182.877    -247.942
  O     -143.532     185.013    -246.632
  H     -148.117     186.909    -252.901
  H     -144.329     185.543    -246.451
  H     -151.980     182.868    -252.292
  H     -148.122     185.600    -247.910
  H     -148.087     184.947    -251.681
  H     -148.747     187.554    -250.794
  H     -147.130     187.536    -249.000
  H     -145.175     186.264    -251.017
  H     -144.205     186.951    -248.824
  H     -153.462     182.433    -248.062
  H     -152.283     183.228    -247.023
  H     -145.401     185.936    -247.989
  P     -145.544     189.708    -249.417
  C     -143.069     189.694    -250.124
  O     -144.016     189.332    -249.119
  O     -146.418     189.883    -248.219
  O     -145.419     191.036    -250.297
  H     -145.375     191.820    -249.712
  H     -142.089     189.394    -249.815
  H     -143.089     190.754    -250.268
  H     -143.319     189.205    -251.042

 6  7  8  9  10  11  12  13  14  15  25  28  32  33  34  35 0
 6-311+G(2d,p)
 ****
 36  39  40 0
 6-311+G(2d,p)
 ****
 1  2  3  4  5  16  17  18  19  20  21  22  23  24 0
 3-21G
 ****
 26  27  29  30  31  37  38  41  42  43  44  45  46  47 0
 3-21G
 ****
 48 0
 3-21G
 ****


