%nproc=1
%NoSave
%Mem=1900MB
#P OB98/GEN NMR

erre ene a

0 1
  C      -23.968    -337.562      90.102
  O      -23.957    -336.190      90.426
  P      -23.170    -335.578      91.670
  C      -23.873    -334.331      93.858
  O      -24.229    -335.242      92.828
  C      -24.746    -334.534      95.099
  O      -26.137    -334.364      94.724
  C      -24.609    -335.969      95.658
  O      -24.545    -336.034      97.078
  C      -25.757    -336.703      94.976
  O      -26.134    -337.907      95.639
  C      -26.825    -335.620      94.903
  N      -30.583    -338.456      92.989
  C      -30.013    -338.504      94.241
  N      -30.357    -339.556      95.018
  N      -29.153    -337.621      94.678
  C      -28.810    -336.693      93.755
  C      -29.311    -336.542      92.479
  C      -30.293    -337.502      92.025
  O      -30.742    -337.564      90.880
  N      -28.685    -335.525      91.806
  C      -27.784    -335.082      92.656
  N      -27.797    -335.782      93.842
  O      -22.118    -334.559      91.363
  O      -22.427    -336.888      92.261
  H      -26.828    -338.334      95.108
  H      -21.564    -336.588      92.625
  H      -31.185    -339.210      92.678
  H      -27.077    -334.281      92.456
  H      -27.401    -335.561      95.831
  H      -25.415    -336.988      93.976
  H      -30.906    -340.333      94.651
  H      -23.663    -336.411      95.338
  H      -29.777    -339.752      95.823
  H      -24.503    -333.769      95.852
  H      -24.029    -333.328      93.451
  H      -22.812    -334.428      94.109
  P      -23.721    -337.053      97.995
  C      -24.149    -339.259      99.227
  O      -24.627    -338.349      98.262
  O      -23.661    -336.363      99.435
  O      -22.338    -337.357      97.508
  H      -22.782    -336.512      99.831
  H      -24.688    -340.208      99.123
  H      -24.327    -338.863     100.229
  H      -23.078    -339.448      99.091
  H      -24.565    -337.717      89.228
  H      -24.380    -338.118      90.918
  H      -22.968    -337.892      89.914

 3  4  5  6  7  8  9  10  11  12  23  26  30  31 0
 6-311+G(2d,p)
 ****
 33  35  36  37  38 0
 6-311+G(2d,p)
 ****
 1  2  13  14  15  16  17  18  19  20  21  22  24  25 0
 3-21G
 ****
 27  28  29  32  34  39  40  41  42  43  44  45  46  47  48  49 0
 3-21G
 ****


