%nproc=1
%NoSave
%Mem=1900MB
#P OB98/GEN NMR

erre ene a

0 1
  C      424.590    -244.926    -391.011
  O      424.558    -245.291    -389.625
  P      425.922    -245.788    -388.944
  C      427.560    -243.847    -388.384
  O      426.458    -244.637    -387.963
  C      428.283    -243.247    -387.174
  O      429.524    -242.620    -387.544
  C      427.483    -242.161    -386.462
  O      426.523    -242.718    -385.570
  C      428.579    -241.452    -385.685
  O      428.894    -242.197    -384.490
  C      429.755    -241.499    -386.661
  N      431.942    -236.873    -386.942
  C      431.970    -237.825    -385.985
  N      431.350    -239.024    -385.975
  C      430.648    -239.206    -387.105
  C      430.523    -238.321    -388.166
  C      431.213    -237.102    -388.057
  N      431.182    -236.135    -389.036
  N      429.711    -238.847    -389.153
  C      429.364    -240.036    -388.698
  N      429.897    -240.293    -387.464
  O      426.964    -245.752    -390.158
  O      425.836    -247.151    -388.342
  H      429.271    -243.049    -384.775
  H      427.609    -246.474    -390.063
  H      432.573    -237.601    -385.112
  H      428.735    -240.738    -389.224
  H      430.717    -241.666    -386.157
  H      428.283    -240.448    -385.360
  H      427.026    -241.474    -387.184
  H      428.501    -244.062    -386.468
  H      427.221    -243.049    -389.053
  H      431.723    -235.299    -388.901
  H      430.657    -236.312    -389.883
  H      428.245    -244.471    -388.973
  P      425.151    -241.913    -385.375
  C      423.670    -243.212    -387.064
  O      423.984    -242.956    -385.709
  O      425.147    -240.904    -386.619
  O      425.041    -241.195    -384.071
  H      424.670    -240.084    -386.383
  H      423.093    -244.140    -387.118
  H      424.577    -243.332    -387.665
  H      423.064    -242.397    -387.466
  H      423.613    -244.618    -391.321
  H      424.901    -245.768    -391.594
  H      425.280    -244.120    -391.152

 3  4  5  6  7  8  9  10  11  12  22  25  29  30  31  32 0
 6-311+G(2d,p)
 ****
 33  36  37 0
 6-311+G(2d,p)
 ****
 1  2  13  14  15  16  17  18  19  20  21  23  24  26 0
 3-21G
 ****
 27  28  34  35  38  39  40  41  42  43  44  45  46  47  48 0
 3-21G
 ****


