%nproc=1
%NoSave
%Mem=1900MB
#P OB98/GEN NMR

erre ene a

0 1
  C      -67.399    -249.598     147.497
  O      -67.605    -248.588     146.511
  P      -68.894    -248.680     145.558
  C      -69.586    -246.271     146.146
  O      -69.307    -247.193     145.100
  C      -69.726    -244.831     145.632
  O      -68.421    -244.213     145.460
  C      -70.471    -244.706     144.292
  O      -71.228    -243.494     144.342
  C      -69.333    -244.584     143.297
  O      -69.747    -244.046     142.052
  C      -68.354    -243.720     144.103
  N      -66.999    -243.772     143.577
  C      -66.786    -243.226     142.310
  O      -67.738    -242.824     141.642
  N      -65.495    -243.183     141.821
  C      -64.542    -243.771     142.477
  N      -63.280    -243.690     141.977
  C      -64.764    -244.512     143.738
  C      -66.001    -244.449     144.234
  O      -70.020    -249.507     146.082
  O      -68.298    -249.310     144.207
  H      -70.297    -243.248     142.214
  H      -68.974    -249.884     143.806
  H      -63.961    -245.057     144.205
  H      -66.264    -244.957     145.152
  H      -68.678    -242.671     144.119
  H      -68.900    -245.576     143.107
  H      -71.148    -245.542     144.089
  H      -70.263    -244.249     146.401
  H      -63.142    -243.197     141.099
  H      -68.784    -246.312     146.889
  H      -62.476    -244.078     142.454
  H      -70.497    -246.593     146.672
  P      -72.707    -243.521     144.978
  C      -72.966    -240.988     145.506
  O      -73.380    -242.088     144.728
  O      -72.383    -243.462     146.554
  O      -73.532    -244.729     144.667
  H      -73.125    -243.862     147.040
  H      -73.308    -240.065     145.030
  H      -71.875    -240.947     145.594
  H      -73.416    -241.051     146.507
  H      -66.502    -249.388     148.041
  H      -67.311    -250.551     147.018
  H      -68.230    -249.613     148.171

 3  4  5  6  7  8  9  10  11  12  13  23  27  28  29  30  32 0
 6-311+G(2d,p)
 ****
 34  35 0
 6-311+G(2d,p)
 ****
 1  2  14  15  16  17  18  19  20  21  22  24  25  26 0
 3-21G
 ****
 31  33  36  37  38  39  40  41  42  43  44  45  46 0
 3-21G
 ****


