%nproc=1
%NoSave
%Mem=1900MB
#P OB98/GEN NMR

erre ene a

0 1
  C      121.872     -72.111     -37.180
  O      122.223     -72.773     -38.373
  P      122.779     -72.031     -39.669
  C      120.682     -72.434     -41.178
  O      122.069     -72.662     -40.960
  C      120.141     -73.350     -42.291
  O      120.803     -72.998     -43.535
  C      120.472     -74.831     -42.016
  O      119.406     -75.722     -42.315
  C      121.782     -75.032     -42.760
  O      122.071     -76.394     -43.042
  C      121.592     -74.121     -43.971
  N      125.569     -75.157     -46.969
  C      124.394     -75.865     -46.807
  N      124.357     -77.090     -47.378
  N      123.374     -75.418     -46.121
  C      123.603     -74.234     -45.512
  C      124.727     -73.441     -45.597
  C      125.832     -73.924     -46.390
  O      126.936     -73.385     -46.463
  N      124.632     -72.331     -44.795
  C      123.468     -72.474     -44.191
  N      122.821     -73.630     -44.575
  O      124.252     -71.783     -39.724
  O      122.051     -70.590     -39.557
  H      121.766     -76.921     -42.277
  H      122.669     -69.925     -39.918
  H      126.354     -75.586     -47.444
  H      123.057     -71.793     -43.455
  H      121.052     -74.628     -44.772
  H      122.588     -74.661     -42.113
  H      125.178     -77.515     -47.789
  H      120.639     -74.988     -40.946
  H      123.617     -77.718     -47.072
  H      119.071     -73.170     -42.420
  H      120.584     -71.385     -41.473
  H      120.115     -72.579     -40.254
  P      118.278     -76.296     -41.340
  C      118.884     -78.768     -41.664
  O      117.891     -77.776     -41.821
  O      116.963     -75.452     -41.696
  O      118.589     -76.176     -39.889
  H      116.473     -75.254     -40.873
  H      118.610     -79.642     -42.264
  H      118.940     -79.070     -40.613
  H      119.864     -78.401     -41.991
  H      121.528     -72.827     -36.463
  H      121.094     -71.404     -37.380
  H      122.727     -71.599     -36.791

 3  4  5  6  7  8  9  10  11  12  23  26  30  31 0
 6-311+G(2d,p)
 ****
 33  35  36  37  38 0
 6-311+G(2d,p)
 ****
 1  2  13  14  15  16  17  18  19  20  21  22  24  25 0
 3-21G
 ****
 27  28  29  32  34  39  40  41  42  43  44  45  46  47  48  49 0
 3-21G
 ****


