%nproc=1
%NoSave
%Mem=1900MB
#P OB98/GEN NMR

erre ene a

0 1
  C      606.848    -371.687    -125.995
  O      607.899    -371.819    -125.057
  P      608.999    -370.646    -125.017
  C      608.871    -370.225    -122.448
  O      609.650    -370.702    -123.553
  C      609.426    -370.775    -121.134
  O      608.886    -372.080    -120.881
  C      610.941    -370.940    -121.129
  O      611.580    -369.702    -120.948
  C      611.123    -371.905    -119.957
  O      611.210    -371.197    -118.712
  C      609.841    -372.763    -120.026
  N      610.092    -374.119    -120.499
  C      610.294    -375.078    -119.489
  O      610.277    -374.745    -118.303
  N      610.555    -376.370    -119.878
  C      610.617    -376.682    -121.125
  N      610.864    -377.988    -121.447
  C      610.415    -375.703    -122.215
  C      610.167    -374.440    -121.830
  O      608.108    -369.316    -124.983
  O      609.966    -370.651    -126.163
  H      611.965    -370.565    -118.818
  H      608.596    -368.559    -125.369
  H      610.473    -376.007    -123.241
  H      610.012    -373.658    -122.553
  H      609.376    -372.828    -119.043
  H      612.047    -372.493    -120.060
  H      611.275    -371.407    -122.063
  H      609.115    -370.100    -120.319
  H      610.996    -378.636    -120.685
  H      607.839    -370.578    -122.567
  H      610.898    -378.331    -122.395
  H      608.879    -369.129    -122.455
  P      613.055    -369.524    -121.541
  C      612.615    -367.162    -122.460
  O      613.329    -367.946    -121.516
  O      612.827    -369.796    -123.115
  O      614.113    -370.402    -120.973
  H      613.681    -369.824    -123.567
  H      612.785    -366.107    -122.239
  H      611.547    -367.378    -122.414
  H      613.002    -367.372    -123.478
  H      606.192    -372.529    -125.917
  H      607.255    -371.643    -126.983
  H      606.302    -370.789    -125.794

 3  4  5  6  7  8  9  10  11  12  13  21  23  27  28  29  30  32 0
 6-311+G(2d,p)
 ****
 34  35 0
 6-311+G(2d,p)
 ****
 1  2  14  15  16  17  18  19  20  22  24  25  26 0
 3-21G
 ****
 31  33  36  37  38  39  40  41  42  43  44  45  46 0
 3-21G
 ****


