%nproc=1
%NoSave
%Mem=1900MB
#P OB98/GEN NMR

erre ene a

0 1
  C      -74.584    -426.686     340.069
  O      -74.355    -425.647     340.994
  P      -73.869    -424.184     340.582
  C      -71.821    -422.653     341.130
  O      -72.394    -423.954     341.172
  C      -70.310    -422.712     341.364
  O      -70.056    -423.420     342.608
  C      -69.594    -423.509     340.251
  O      -68.368    -422.929     339.820
  C      -69.535    -424.918     340.828
  O      -68.549    -425.742     340.215
  C      -69.341    -424.639     342.315
  N      -68.149    -428.827     344.940
  C      -67.310    -427.903     344.356
  N      -66.000    -428.228     344.298
  N      -67.727    -426.777     343.832
  C      -69.074    -426.636     343.847
  C      -70.008    -427.484     344.406
  C      -69.527    -428.705     345.015
  O      -70.244    -429.606     345.445
  N      -71.290    -427.049     344.177
  C      -71.133    -425.958     343.459
  N      -69.809    -425.684     343.201
  O      -74.866    -423.080     340.732
  O      -73.578    -424.370     339.003
  H      -67.674    -425.399     340.471
  H      -73.803    -423.519     338.566
  H      -67.777    -429.713     345.257
  H      -71.944    -425.347     343.069
  H      -68.289    -424.485     342.560
  H      -70.507    -425.390     340.638
  H      -65.672    -429.156     344.561
  H      -70.204    -423.521     339.343
  H      -65.412    -427.702     343.663
  H      -69.910    -421.692     341.469
  H      -72.301    -422.078     341.929
  H      -72.049    -422.159     340.181
  P      -67.303    -423.504     338.769
  C      -64.819    -424.121     338.814
  O      -66.002    -423.990     339.570
  O      -66.771    -422.226     337.972
  O      -67.852    -424.519     337.811
  H      -66.658    -422.453     337.030
  H      -64.093    -424.709     339.391
  H      -64.392    -423.136     338.618
  H      -65.014    -424.640     337.870
  H      -74.902    -427.564     340.591
  H      -73.680    -426.895     339.536
  H      -75.344    -426.387     339.378

 3  4  5  6  7  8  9  10  11  12  23  26  30  31 0
 6-311+G(2d,p)
 ****
 33  35  36  37  38 0
 6-311+G(2d,p)
 ****
 1  2  13  14  15  16  17  18  19  20  21  22  24  25 0
 3-21G
 ****
 27  28  29  32  34  39  40  41  42  43  44  45  46  47  48  49 0
 3-21G
 ****


