%nproc=1
%NoSave
%Mem=1900MB
#P OB98/GEN NMR

erre ene a

0 1
  C        4.541     374.740     -55.770
  O        4.944     374.445     -54.444
  P        3.980     374.946     -53.255
  C        2.801     377.192     -52.682
  O        3.806     376.529     -53.432
  C        2.654     378.638     -53.155
  O        2.509     378.676     -54.590
  C        1.439     379.365     -52.602
  O        1.640     379.754     -51.255
  C        1.339     380.529     -53.588
  O        2.300     381.538     -53.257
  C        1.721     379.846     -54.919
  N       -1.488     381.190     -58.677
  C       -0.452     381.831     -58.104
  N        0.339     381.424     -57.092
  C       -0.021     380.200     -56.674
  C       -1.070     379.428     -57.147
  C       -1.828     379.965     -58.196
  N       -2.889     379.301     -58.778
  N       -1.152     378.238     -56.454
  C       -0.164     378.286     -55.589
  N        0.558     379.446     -55.687
  O        4.912     374.821     -51.963
  O        2.707     374.171     -53.112
  H        3.185     381.179     -53.464
  H        4.386     374.571     -51.177
  H       -0.223     382.819     -58.517
  H        0.075     377.507     -54.876
  H        2.333     380.493     -55.555
  H        0.350     380.996     -53.597
  H        0.546     378.735     -52.676
  H        3.576     379.176     -52.887
  H        3.077     377.195     -51.618
  H       -3.467     379.818     -59.424
  H       -3.223     378.459     -58.325
  H        1.857     376.645     -52.789
  P        0.353     379.791     -50.300
  C       -2.008     380.658     -50.832
  O       -0.616     380.860     -51.006
  O        0.904     380.602     -49.037
  O       -0.249     378.462     -50.004
  H        1.373     381.419     -49.303
  H       -2.545     381.479     -51.316
  H       -2.255     380.647     -49.766
  H       -2.308     379.712     -51.294
  H        5.265     374.354     -56.457
  H        4.463     375.800     -55.892
  H        3.590     374.288     -55.963

 3  4  5  6  7  8  9  10  11  12  22  25  29  30  31  32 0
 6-311+G(2d,p)
 ****
 33  36  37 0
 6-311+G(2d,p)
 ****
 1  2  13  14  15  16  17  18  19  20  21  23  24  26 0
 3-21G
 ****
 27  28  34  35  38  39  40  41  42  43  44  45  46  47  48 0
 3-21G
 ****


