%nproc=1
%NoSave
%Mem=1900MB
#P OB98/GEN NMR

erre ene a

0 1
  C      125.665      40.260      25.781
  O      125.028      39.594      26.852
  H      126.740      40.283      25.972
  H      125.298      41.288      25.717
  H      125.486      39.740      24.837
  P      123.500      39.156      26.627
  C      123.059      40.595      28.742
  O      122.742      39.415      28.018
  C      122.296      40.627      30.062
  O      120.892      40.377      29.838
  C      122.759      39.591      31.081
  O      123.893      40.042      31.808
  C      121.534      39.508      31.976
  O      121.496      40.655      32.853
  C      120.389      39.593      30.956
  N      117.837      35.360      32.089
  C      118.163      36.438      32.888
  N      117.759      36.375      34.175
  N      118.830      37.482      32.469
  C      119.191      37.396      31.166
  C      118.932      36.379      30.275
  C      118.181      35.240      30.748
  O      117.856      34.264      30.077
  N      119.458      36.646      29.039
  C      120.053      37.813      29.187
  N      119.923      38.309      30.461
  O      123.600      37.559      26.539
  O      122.848      39.727      25.413
  H      122.218      40.545      33.497
  H      123.540      37.291      25.602
  H      117.331      34.577      32.465
  H      120.582      38.341      28.408
  H      119.514      40.115      31.357
  H      121.536      38.622      32.612
  H      117.262      35.592      34.569
  H      122.940      38.615      30.614
  H      117.984      37.156      34.778
  H      122.385      41.640      30.475
  H      122.784      41.467      28.140
  H      124.137      40.616      28.932
  P      125.038      38.978      32.168
  C      124.127      38.214      34.473
  O      125.138      38.924      33.771
  O      126.375      39.742      31.736
  O      124.918      37.660      31.485
  H      126.772      39.303      30.958
  H      124.321      38.262      35.524
  H      124.125      37.192      34.157
  H      123.174      38.653      34.266

 6  7  8  9  10  11  12  13  14  15  26  29  33  34 0
 6-311+G(2d,p)
 ****
 36  38  39  40  41 0
 6-311+G(2d,p)
 ****
 1  2  3  4  5  16  17  18  19  20  21  22  23  24  25 0
 3-21G
 ****
 27  28  30  31  32  35  37  42  43  44  45  46  47 0
 3-21G
 ****
 48  49 0
 3-21G
 ****


