%nproc=1
%NoSave
%Mem=1900MB
#P OB98/GEN NMR

erre ene a

0 1
  C     -408.383     -86.209      -8.459
  O     -409.470     -86.977      -8.924
  H     -408.722     -85.603      -7.613
  H     -408.034     -85.542      -9.250
  H     -407.562     -86.846      -8.125
  P     -409.185     -88.184      -9.938
  C     -409.339     -86.471     -11.864
  O     -408.605     -87.542     -11.288
  C     -408.855     -86.176     -13.286
  O     -407.486     -85.693     -13.228
  C     -408.847     -87.447     -14.154
  O     -409.029     -87.157     -15.534
  C     -407.437     -87.983     -13.936
  O     -407.001     -88.843     -14.993
  C     -406.634     -86.683     -13.824
  N     -401.895     -88.572     -13.603
  C     -402.894     -88.808     -14.529
  N     -402.581     -89.670     -15.538
  N     -404.087     -88.284     -14.468
  C     -404.276     -87.504     -13.371
  C     -403.383     -87.205     -12.375
  C     -402.049     -87.766     -12.474
  O     -401.141     -87.604     -11.669
  N     -403.942     -86.388     -11.430
  C     -405.176     -86.194     -11.842
  N     -405.426     -86.833     -13.035
  O     -410.651     -88.659     -10.382
  O     -408.383     -89.327      -9.377
  H     -406.093     -89.128     -14.776
  H     -410.623     -89.576     -10.708
  H     -400.986     -88.974     -13.719
  H     -405.926     -85.596     -11.332
  H     -406.338     -86.330     -14.820
  H     -407.430     -88.575     -13.019
  H     -401.750     -90.239     -15.510
  H     -409.589     -88.172     -13.841
  H     -403.372     -90.098     -16.029
  H     -409.456     -85.374     -13.728
  H     -409.191     -85.598     -11.213
  H     -410.406     -86.696     -11.856
  P     -410.491     -86.745     -16.044
  C     -411.215     -89.075     -17.094
  O     -411.413     -88.047     -16.143
  O     -410.260     -86.328     -17.568
  O     -411.129     -85.651     -15.253
  H     -410.454     -85.379     -17.700
  H     -411.957     -89.834     -16.959
  H     -410.242     -89.500     -16.962
  H     -411.296     -88.669     -18.081

 6  7  8  9  10  11  12  13  14  15  26  29  33  34 0
 6-311+G(2d,p)
 ****
 36  38  39  40  41 0
 6-311+G(2d,p)
 ****
 1  2  3  4  5  16  17  18  19  20  21  22  23  24  25 0
 3-21G
 ****
 27  28  30  31  32  35  37  42  43  44  45  46  47 0
 3-21G
 ****
 48  49 0
 3-21G
 ****


