%nproc=1
%NoSave
%Mem=1900MB
#P OB98/GEN NMR

erre ene a

0 1
  C     -120.579     112.776     865.015
  O     -120.018     113.024     866.286
  H     -121.678     112.797     865.100
  H     -120.285     111.789     864.642
  H     -120.274     113.547     864.301
  P     -118.442     112.790     866.470
  C     -117.720     115.244     866.082
  O     -117.860     114.179     867.034
  C     -118.232     116.571     866.660
  O     -119.627     116.441     867.045
  C     -117.507     117.002     867.946
  O     -116.165     117.402     867.718
  C     -118.498     117.982     868.554
  O     -118.371     119.319     868.056
  C     -119.851     117.388     868.107
  N     -120.586     116.786     869.227
  C     -120.881     117.623     870.290
  O     -120.560     118.809     870.329
  N     -121.553     117.047     871.340
  C     -121.885     115.729     871.450
  O     -122.447     115.265     872.430
  C     -121.514     114.878     870.290
  C     -120.890     115.429     869.256
  O     -117.713     112.271     865.266
  O     -118.354     111.826     867.740
  H     -119.164     119.808     868.354
  H     -117.467     111.393     867.799
  H     -121.790     117.647     872.118
  H     -121.768     113.824     870.346
  H     -120.607     114.827     868.406
  H     -120.495     118.178     867.676
  H     -118.379     118.041     869.640
  H     -117.462     116.139     868.613
  H     -118.165     117.341     865.883
  H     -118.313     114.982     865.197
  H     -116.673     115.342     865.790
  P     -114.989     117.051     868.745
  C     -114.785     114.516     868.135
  O     -114.157     115.807     868.134
  O     -115.329     117.039     870.195
  O     -113.975     118.285     868.498
  H     -113.542     118.493     869.345
  H     -114.121     113.796     867.704
  H     -115.687     114.558     867.561
  H     -115.015     114.232     869.141

 6  7  8  9  10  11  12  13  14  15  16  26  31  32  33  34  35 0
 6-311+G(2d,p)
 ****
 36  37 0
 6-311+G(2d,p)
 ****
 1  2  3  4  5  17  18  19  20  21  22  23  24  25 0
 3-21G
 ****
 27  28  29  30  38  39  40  41  42  43  44  45 0
 3-21G
 ****


