%nproc=1
%NoSave
%Mem=1900MB
#P OB98/GEN NMR

erre ene a

0 1
  C     -520.225     -20.813      63.750
  O     -521.150     -19.863      64.268
  H     -519.276     -20.704      64.280
  H     -520.050     -20.647      62.680
  H     -520.602     -21.826      63.911
  P     -522.531     -19.650      63.475
  C     -523.424     -18.376      65.543
  O     -523.199     -18.344      64.134
  C     -522.967     -17.068      66.202
  O     -521.577     -16.819      65.905
  C     -523.704     -15.835      65.701
  O     -525.061     -15.778      66.086
  C     -522.760     -14.702      66.082
  O     -522.951     -14.243      67.416
  C     -521.377     -15.391      65.957
  N     -520.630     -14.910      64.800
  C     -519.837     -13.785      65.021
  O     -519.768     -13.196      66.102
  N     -519.141     -13.315      63.930
  C     -519.213     -13.829      62.663
  O     -518.593     -13.339      61.717
  C     -520.082     -14.999      62.486
  C     -520.744     -15.480      63.546
  O     -523.440     -20.842      63.425
  O     -522.068     -19.134      62.033
  H     -522.307     -13.511      67.555
  H     -522.799     -19.220      61.373
  H     -518.554     -12.516      64.078
  H     -520.167     -15.426      61.492
  H     -521.402     -16.346      63.445
  H     -520.774     -15.199      66.847
  H     -522.883     -13.848      65.423
  H     -523.714     -15.867      64.601
  H     -523.073     -17.169      67.289
  H     -522.839     -19.203      65.950
  H     -524.483     -18.556      65.746
  P     -526.091     -14.691      65.541
  C     -527.755     -14.953      67.524
  O     -526.909     -14.075      66.783
  O     -526.861     -15.059      64.298
  O     -525.105     -13.477      65.148
  H     -525.474     -13.034      64.351
  H     -528.231     -14.409      68.313
  H     -527.169     -15.746      67.940
  H     -528.500     -15.363      66.874

 6  7  8  9  10  11  12  13  14  15  16  26  31  32  33  34  35 0
 6-311+G(2d,p)
 ****
 36  37 0
 6-311+G(2d,p)
 ****
 1  2  3  4  5  17  18  19  20  21  22  23  24  25 0
 3-21G
 ****
 27  28  29  30  38  39  40  41  42  43  44  45 0
 3-21G
 ****


