%nproc=1
%NoSave
%Mem=1900MB
#P OB98/GEN NMR

erre ene a

0 1
  C     -557.113      -8.765     302.285
  O     -557.316      -8.984     300.884
  P     -556.043      -8.878     299.897
  C     -556.311     -11.278     298.868
  O     -556.282      -9.855     298.646
  C     -557.027     -11.963     297.708
  O     -558.456     -11.897     297.870
  C     -556.766     -11.318     296.333
  O     -555.483     -11.689     295.823
  C     -557.923     -11.881     295.515
  O     -557.616     -13.218     295.028
  C     -559.069     -11.932     296.540
  N     -560.033     -10.855     296.373
  C     -560.911     -10.974     295.313
  O     -560.875     -11.914     294.493
  N     -561.824      -9.957     295.179
  C     -561.921      -8.836     295.928
  O     -562.748      -7.964     295.757
  C     -560.902      -8.727     296.996
  C     -560.027      -9.701     297.164
  O     -554.913      -9.644     300.720
  O     -555.593      -7.479     299.551
  H     -558.448     -13.554     294.624
  H     -554.013      -9.293     300.482
  H     -562.507     -10.044     294.418
  H     -560.921      -7.828     297.608
  H     -559.258      -9.637     297.931
  H     -559.598     -12.876     296.492
  H     -558.162     -11.266     294.630
  H     -556.875     -10.220     296.405
  H     -556.736     -13.019     297.691
  H     -556.855     -11.471     299.780
  H     -555.294     -11.642     298.950
  P     -555.002     -10.902     294.490
  C     -552.721     -10.376     295.659
  O     -553.413     -10.918     294.554
  O     -555.420      -9.387     294.837
  O     -555.646     -11.457     293.252
  H     -555.326      -9.194     295.792
  H     -553.285     -10.533     296.570
  H     -552.536      -9.325     295.493
  H     -551.748     -10.876     295.735
  H     -558.045      -8.869     302.801
  H     -556.728      -7.779     302.440
  H     -556.415      -9.483     302.661

 3  4  5  6  7  8  9  10  11  12  13  23  28  29  30  31  32 0
 6-311+G(2d,p)
 ****
 33  34 0
 6-311+G(2d,p)
 ****
 1  2  14  15  16  17  18  19  20  21  22  24  25  26 0
 3-21G
 ****
 27  35  36  37  38  39  40  41  42  43  44  45 0
 3-21G
 ****


