%nproc=1
%NoSave
%Mem=1900MB
#P OB98/GEN NMR

erre ene a

0 1
  C      300.475    -884.013      84.469
  O      299.345    -884.370      83.690
  P      297.908    -884.338      84.419
  C      296.859    -883.262      82.263
  O      296.810    -884.298      83.263
  C      296.274    -883.770      80.956
  O      297.175    -884.748      80.364
  C      294.930    -884.486      81.098
  O      293.883    -883.511      81.144
  C      294.898    -885.356      79.836
  O      294.519    -884.574      78.682
  C      296.379    -885.796      79.733
  N      297.611    -890.628      78.869
  C      297.235    -889.636      77.983
  N      297.206    -889.985      76.662
  N      296.881    -888.430      78.343
  C      296.908    -888.226      79.677
  C      297.277    -889.147      80.671
  C      297.689    -890.476      80.252
  O      298.150    -891.349      80.985
  N      297.180    -888.600      81.921
  C      296.809    -887.356      81.702
  N      296.659    -887.083      80.368
  O      297.863    -882.855      85.054
  O      297.702    -885.399      85.448
  H      293.599    -884.257      78.803
  H      298.119    -882.890      86.006
  H      297.872    -891.539      78.524
  H      296.653    -886.609      82.468
  H      296.720    -885.861      78.683
  H      294.201    -886.186      79.915
  H      297.443    -890.896      76.311
  H      294.912    -885.118      81.988
  H      296.930    -889.258      76.007
  H      296.208    -882.917      80.260
  H      297.896    -882.956      82.132
  H      296.272    -882.403      82.643
  P      292.858    -883.614      82.392
  C      292.641    -881.019      82.492
  O      291.981    -882.275      82.373
  O      293.811    -883.447      83.674
  O      292.080    -884.885      82.457
  H      293.484    -884.008      84.409
  H      292.054    -880.265      81.968
  H      293.651    -881.070      82.069
  H      292.712    -880.754      83.546
  H      301.357    -884.076      83.867
  H      300.561    -884.682      85.300
  H      300.359    -883.012      84.828

 3  4  5  6  7  8  9  10  11  12  23  26  30  31 0
 6-311+G(2d,p)
 ****
 33  35  36  37  38 0
 6-311+G(2d,p)
 ****
 1  2  13  14  15  16  17  18  19  20  21  22  24  25 0
 3-21G
 ****
 27  28  29  32  34  39  40  41  42  43  44  45  46  47  48  49 0
 3-21G
 ****


