%nproc=1
%NoSave
%Mem=1900MB
#P OB98/GEN NMR

erre ene a

0 1
  C     -109.616    -145.258    -155.017
  O     -108.858    -144.065    -155.003
  H     -110.053    -145.386    -156.011
  H     -110.423    -145.202    -154.283
  H     -108.973    -146.116    -154.801
  P     -108.175    -143.657    -153.611
  C     -105.712    -143.565    -154.433
  O     -106.681    -144.241    -153.644
  C     -104.787    -142.758    -153.528
  O     -104.260    -143.607    -152.484
  C     -103.569    -142.184    -154.237
  O     -103.879    -141.022    -154.984
  C     -102.655    -141.900    -153.057
  O     -102.955    -140.634    -152.450
  C     -102.981    -143.067    -152.097
  N     -101.935    -144.083    -152.093
  C     -100.901    -143.884    -151.182
  O     -100.852    -142.918    -150.419
  N      -99.900    -144.816    -151.200
  C      -99.813    -145.881    -152.046
  O      -98.851    -146.638    -152.061
  C     -100.941    -146.050    -152.979
  C     -101.931    -145.153    -152.967
  O     -108.926    -144.592    -152.551
  O     -108.275    -142.210    -153.257
  H     -109.591    -144.073    -152.062
  H     -103.831    -140.735    -152.028
  H      -99.137    -144.682    -150.556
  H     -100.908    -146.891    -153.663
  H     -102.761    -145.245    -153.659
  H     -103.093    -142.695    -151.070
  H     -101.608    -141.867    -153.360
  H     -103.102    -142.950    -154.870
  H     -105.373    -141.957    -153.057
  H     -106.217    -142.883    -155.127
  H     -105.147    -144.302    -155.014
  P     -102.981    -140.673    -156.266
  C     -103.904    -142.802    -157.502
  O     -102.787    -142.046    -157.075
  O     -101.559    -140.413    -155.587
  O     -103.511    -139.541    -157.079
  H     -101.389    -140.993    -154.825
  H     -103.567    -143.675    -158.020
  H     -104.506    -142.209    -158.158
  H     -104.484    -143.093    -156.651

 6  7  8  9  10  11  12  13  14  15  16  27  31  32  33  34  35 0
 6-311+G(2d,p)
 ****
 36  37 0
 6-311+G(2d,p)
 ****
 1  2  3  4  5  17  18  19  20  21  22  23  24  25 0
 3-21G
 ****
 26  28  29  30  38  39  40  41  42  43  44  45 0
 3-21G
 ****


