%nproc=1
%NoSave
%Mem=1900MB
#P OB98/GEN NMR

erre ene a

0 1
  C     -137.822    -231.816     -29.016
  O     -138.893    -232.672     -28.678
  P     -138.813    -234.251     -28.939
  C     -137.337    -236.154     -28.025
  O     -137.432    -234.758     -28.286
  C     -135.918    -236.655     -28.336
  O     -135.711    -236.610     -29.780
  C     -134.822    -235.794     -27.670
  O     -133.874    -236.534     -26.898
  C     -134.247    -235.023     -28.848
  O     -132.943    -234.517     -28.619
  C     -134.409    -236.030     -29.992
  N     -134.280    -235.410     -31.308
  C     -132.994    -235.298     -31.832
  O     -131.975    -235.691     -31.268
  N     -132.892    -234.648     -33.029
  C     -133.904    -234.011     -33.685
  O     -133.723    -233.362     -34.707
  C     -135.231    -234.134     -33.061
  C     -135.364    -234.833     -31.934
  O     -139.012    -234.673     -30.357
  O     -139.900    -234.842     -27.923
  H     -132.981    -233.931     -27.841
  H     -139.736    -234.642     -26.985
  H     -131.967    -234.558     -33.421
  H     -136.053    -233.629     -33.554
  H     -136.332    -234.941     -31.453
  H     -133.678    -236.839     -29.918
  H     -134.896    -234.158     -29.032
  H     -135.258    -235.090     -26.953
  H     -135.852    -237.696     -28.007
  H     -138.048    -236.682     -28.666
  H     -137.611    -236.360     -26.986
  P     -133.116    -235.985     -25.604
  C     -133.858    -235.043     -23.294
  O     -134.198    -235.305     -24.643
  O     -131.904    -235.157     -25.878
  O     -132.717    -237.318     -24.808
  H     -131.905    -237.160     -24.294
  H     -134.772    -235.075     -22.691
  H     -133.423    -234.043     -23.220
  H     -133.153    -235.782     -22.907
  H     -138.077    -230.808     -28.762
  H     -137.631    -231.881     -30.067
  H     -136.946    -232.110     -28.476

 3  4  5  6  7  8  9  10  11  12  13  23  28  29  30  31  32 0
 6-311+G(2d,p)
 ****
 33  34 0
 6-311+G(2d,p)
 ****
 1  2  14  15  16  17  18  19  20  21  22  24  25  26  27 0
 3-21G
 ****
 35  36  37  38  39  40  41  42  43  44  45 0
 3-21G
 ****


