%nproc=1
%NoSave
%Mem=1900MB
#P OB98/GEN NMR

erre ene a

0 1
  C      468.200    -746.238    1218.859
  O      468.191    -746.128    1217.448
  H      469.237    -746.213    1219.202
  H      467.747    -747.188    1219.149
  H      467.646    -745.407    1219.319
  P      466.799    -745.729    1216.741
  C      466.881    -743.131    1216.923
  O      466.328    -744.345    1217.418
  C      465.872    -741.970    1217.031
  O      465.577    -741.796    1218.451
  C      466.398    -740.639    1216.498
  O      465.298    -739.938    1215.876
  C      466.787    -739.895    1217.760
  O      466.806    -738.477    1217.559
  C      465.733    -740.383    1218.734
  N      464.674    -737.529    1222.725
  C      463.976    -737.691    1221.538
  N      462.893    -736.943    1221.333
  N      464.356    -738.530    1220.593
  C      465.479    -739.245    1220.912
  C      466.237    -739.179    1222.065
  C      465.831    -738.237    1223.086
  O      466.384    -738.033    1224.157
  N      467.307    -740.030    1221.983
  C      467.219    -740.596    1220.795
  N      466.112    -740.138    1220.109
  O      465.788    -746.813    1217.371
  O      466.798    -745.744    1215.260
  H      466.863    -738.041    1218.435
  H      465.703    -747.576    1216.749
  H      464.344    -736.870    1223.411
  H      467.920    -741.279    1220.379
  H      464.762    -739.899    1218.584
  H      467.800    -740.213    1218.061
  H      462.519    -736.284    1222.009
  H      467.218    -740.732    1215.763
  H      462.371    -737.062    1220.481
  H      464.944    -742.278    1216.555
  H      467.126    -743.277    1215.849
  H      467.802    -742.915    1217.459
  P      465.127    -740.056    1214.272
  C      463.454    -742.046    1214.559
  O      464.639    -741.545    1213.919
  O      466.633    -740.012    1213.753
  O      464.304    -738.949    1213.693
  H      466.671    -739.555    1212.909
  H      463.262    -743.043    1214.223
  H      462.623    -741.419    1214.311
  H      463.595    -742.048    1215.620

 6  7  8  9  10  11  12  13  14  15  26  29  33  34 0
 6-311+G(2d,p)
 ****
 36  38  39  40  41 0
 6-311+G(2d,p)
 ****
 1  2  3  4  5  16  17  18  19  20  21  22  23  24  25 0
 3-21G
 ****
 27  28  30  31  32  35  37  42  43  44  45  46  47 0
 3-21G
 ****
 48  49 0
 3-21G
 ****


