%nproc=1
%NoSave
%Mem=1900MB
#P OB98/GEN NMR

erre ene a

0 1
  C     -535.073    1655.870      57.911
  O     -536.395    1656.039      58.362
  H     -534.391    1656.178      58.713
  H     -534.894    1656.480      57.044
  H     -534.883    1654.807      57.686
  P     -537.608    1655.535      57.442
  C     -538.223    1653.484      58.923
  O     -537.735    1653.933      57.656
  C     -538.731    1652.035      58.814
  O     -539.613    1651.921      57.675
  C     -537.585    1651.010      58.641
  O     -537.907    1649.843      59.369
  C     -537.616    1650.714      57.146
  O     -537.108    1649.427      56.850
  C     -539.097    1650.883      56.828
  N     -541.041    1649.189      52.459
  C     -541.084    1648.645      53.739
  N     -541.698    1647.450      53.840
  N     -540.541    1649.195      54.780
  C     -539.955    1650.400      54.506
  C     -539.855    1651.041      53.313
  C     -540.436    1650.411      52.154
  O     -540.423    1650.858      51.003
  N     -539.188    1652.259      53.461
  C     -538.863    1652.297      54.734
  N     -539.318    1651.212      55.416
  O     -537.546    1655.956      56.021
  O     -538.923    1656.082      58.158
  H     -536.172    1649.404      57.158
  H     -539.296    1656.839      57.665
  H     -541.443    1648.735      51.701
  H     -538.332    1653.105      55.221
  H     -539.667    1649.966      57.022
  H     -537.031    1651.467      56.592
  H     -542.162    1646.980      53.079
  H     -536.628    1651.411      58.967
  H     -541.777    1647.025      54.771
  H     -539.302    1651.810      59.723
  H     -539.059    1654.156      59.180
  H     -537.451    1653.579      59.666
  P     -537.240    1649.628      60.839
  C     -539.506    1649.164      61.977
  O     -538.344    1649.975      61.950
  O     -535.905    1650.274      61.001
  O     -537.129    1648.020      60.939
  H     -536.327    1647.814      61.446
  H     -540.156    1649.499      62.758
  H     -539.227    1648.147      62.157
  H     -540.012    1649.234      61.037

 6  7  8  9  10  11  12  13  14  15  26  29  33  34 0
 6-311+G(2d,p)
 ****
 36  38  39  40  41 0
 6-311+G(2d,p)
 ****
 1  2  3  4  5  16  17  18  19  20  21  22  23  24  25 0
 3-21G
 ****
 27  28  30  31  32  35  37  42  43  44  45  46  47 0
 3-21G
 ****
 48  49 0
 3-21G
 ****


