%nproc=1
%NoSave
%Mem=1900MB
#P OB98/GEN NMR

erre ene a

0 1
  C       61.385     223.367      79.449
  O       61.096     221.988      79.575
  H       60.526     223.939      79.806
  H       61.569     223.617      78.401
  H       62.259     223.627      80.053
  P       62.248     220.973      79.116
  C       63.037     220.213      81.481
  O       62.362     219.875      80.279
  C       62.298     219.630      82.691
  O       61.093     220.417      82.925
  C       61.846     218.173      82.502
  O       61.809     217.551      83.797
  C       60.429     218.354      81.982
  O       59.708     217.145      82.045
  C       59.976     219.500      82.882
  N       54.874     219.322      82.609
  C       55.770     218.515      83.217
  N       57.114     218.634      83.256
  C       57.513     219.734      82.596
  C       56.717     220.655      81.937
  C       55.332     220.414      81.953
  N       54.417     221.229      81.329
  N       57.490     221.653      81.370
  C       58.731     221.337      81.687
  N       58.792     220.183      82.418
  O       63.586     221.837      79.275
  O       62.102     220.417      77.739
  H       58.752     217.302      81.896
  H       63.825     222.240      78.419
  H       55.353     217.658      83.740
  H       59.614     221.898      81.407
  H       59.785     219.162      83.908
  H       60.436     218.662      80.932
  H       62.498     217.598      81.840
  H       62.926     219.741      83.582
  H       63.079     221.304      81.561
  H       64.057     219.815      81.451
  H       53.443     220.978      81.374
  H       54.746     222.038      80.820
  P       61.975     215.956      83.904
  C       63.604     216.115      85.945
  O       62.403     215.584      85.405
  O       63.341     215.710      83.101
  O       60.864     215.147      83.319
  H       63.335     214.813      82.715
  H       63.730     215.765      86.948
  H       63.553     217.184      85.944
  H       64.434     215.797      85.349

 6  7  8  9  10  11  12  13  14  15  25  28  32  33  34  35 0
 6-311+G(2d,p)
 ****
 36  37  40 0
 6-311+G(2d,p)
 ****
 1  2  3  4  5  16  17  18  19  20  21  22  23  24 0
 3-21G
 ****
 26  27  29  30  31  38  39 41  42  43  44  45  46  47  48 0
 3-21G
 ****


