%nproc=1
%NoSave
%Mem=1900MB
#P OB98/GEN NMR

erre ene a

0 1
  C      115.641     -51.078     -59.104
  O      116.269     -49.981     -58.471
  H      115.151     -51.689     -58.342
  H      116.388     -51.689     -59.619
  H      114.890     -50.728     -59.818
  P      116.905     -48.862     -59.423
  C      117.150     -46.250     -59.321
  O      116.651     -47.439     -58.721
  C      116.498     -45.029     -58.676
  O      115.066     -45.054     -58.840
  C      116.689     -44.951     -57.171
  O      118.012     -44.630     -56.803
  C      115.671     -43.877     -56.820
  O      116.179     -42.568     -57.109
  C      114.507     -44.236     -57.776
  N      113.412     -44.911     -57.094
  C      112.224     -44.179     -56.977
  O      112.146     -43.044     -57.445
  N      111.167     -44.745     -56.307
  C      111.276     -45.941     -55.822
  N      110.197     -46.440     -55.162
  C      112.500     -46.756     -55.946
  C      113.520     -46.183     -56.582
  O      115.889     -48.834     -60.657
  O      118.333     -49.084     -59.802
  H      116.574     -42.617     -58.001
  H      114.963     -48.704     -60.396
  H      112.542     -47.754     -55.533
  H      114.454     -46.711     -56.716
  H      114.106     -43.331     -58.251
  H      115.411     -43.889     -55.760
  H      116.365     -45.888     -56.700
  H      116.885     -44.133     -59.178
  H      109.382     -45.845     -55.078
  H      116.977     -46.255     -60.401
  H      110.177     -47.344     -54.715
  H      118.233     -46.229     -59.160
  P      118.577     -45.034     -55.358
  C      120.863     -45.736     -54.404
  O      120.162     -45.228     -55.535
  O      117.882     -46.178     -54.701
  O      118.494     -43.663     -54.535
  H      119.014     -42.930     -54.911
  H      121.903     -45.822     -54.638
  H      120.474     -46.699     -54.147
  H      120.738     -45.068     -53.577

 6  7  8  9  10  11  12  13  14  15  16  26  30  31  32  33  35 0
 6-311+G(2d,p)
 ****
 37  38 0
 6-311+G(2d,p)
 ****
 1  2  3  4  5  17  18  19  20  21  22  23  24  25 0
 3-21G
 ****
 27  28  29  34  36  39  40  41  42  43  44  45  46 0
 3-21G
 ****


