%nproc=1
%NoSave
%Mem=1900MB
#P OB98/GEN NMR

erre ene a

0 1
  C      428.942     302.268     382.935
  O      428.877     300.964     382.396
  H      427.937     302.704     382.993
  H      429.357     302.213     383.946
  H      429.586     302.903     382.320
  P      428.257     300.824     380.919
  C      425.928     300.030     380.067
  O      426.690     300.553     381.148
  C      424.562     299.586     380.582
  O      424.685     298.336     381.304
  C      423.926     300.563     381.560
  O      423.269     301.638     380.897
  C      422.932     299.659     382.266
  O      421.790     299.437     381.417
  C      423.745     298.367     382.416
  N      424.072     296.022     386.954
  C      423.255     295.831     385.898
  N      423.243     296.483     384.718
  C      424.214     297.411     384.682
  C      425.127     297.714     385.678
  C      425.033     296.975     386.866
  N      425.841     297.188     387.956
  N      425.956     298.747     385.279
  C      425.561     299.042     384.057
  N      424.490     298.287     383.663
  O      428.795     299.401     380.414
  O      428.561     301.935     379.973
  H      421.251     298.736     381.843
  H      428.665     299.314     379.450
  H      422.502     295.053     386.015
  H      426.008     299.802     383.423
  H      423.122     297.468     382.352
  H      422.558     300.088     383.198
  H      424.655     300.938     382.289
  H      423.908     299.407     379.717
  H      426.456     299.169     379.641
  H      425.600     296.711     388.812
  H      426.457     297.984     387.953
  H      425.809     300.796     379.300
  P      423.468     303.113     381.506
  C      423.006     304.245     383.806
  O      422.917     303.056     383.018
  O      422.354     303.968     380.738
  O      424.836     303.677     381.332
  H      422.651     304.886     380.607
  H      422.605     304.058     384.780
  H      422.449     305.028     383.335
  H      424.031     304.539     383.893

 6  7  8  9  10  11  12  13  14  15  25  28  32  33  34  35 0
 6-311+G(2d,p)
 ****
 36  39  40 0
 6-311+G(2d,p)
 ****
 1  2  3  4  5  16  17  18  19  20  21  22  23  24 0
 3-21G
 ****
 26  27  29  30  31  37  38  41  42  43  44  45  46  47 0
 3-21G
 ****
 48 0
 3-21G
 ****


