%nproc=1
%NoSave
%Mem=1900MB
#P OB98/GEN NMR

erre ene a

0 1
  C     -187.613     364.625    -423.093
  O     -186.906     364.010    -424.153
  H     -187.012     365.454    -422.706
  H     -187.783     363.909    -422.283
  H     -188.566     365.016    -423.453
  P     -187.601     362.736    -424.838
  C     -187.596     361.925    -427.284
  O     -186.868     362.600    -426.262
  C     -186.790     361.910    -428.588
  O     -186.734     363.266    -429.111
  C     -185.346     361.420    -428.414
  O     -184.977     360.636    -429.547
  C     -184.534     362.705    -428.389
  O     -183.185     362.501    -428.802
  C     -185.348     363.607    -429.315
  N     -182.116     367.502    -429.973
  C     -182.140     366.250    -430.486
  N     -183.057     365.277    -430.267
  C     -184.037     365.720    -429.464
  C     -184.145     366.963    -428.861
  C     -183.115     367.883    -429.136
  N     -183.064     369.146    -428.607
  N     -185.278     367.024    -428.071
  C     -185.851     365.838    -428.199
  N     -185.126     365.012    -429.020
  O     -189.093     362.765    -424.885
  O     -186.965     361.532    -424.003
  H     -182.803     363.373    -429.032
  H     -186.005     361.655    -423.870
  H     -181.318     365.994    -431.151
  H     -186.773     365.533    -427.713
  H     -185.106     363.450    -430.378
  H     -184.518     363.115    -427.369
  H     -185.215     360.839    -427.499
  H     -187.332     361.306    -429.326
  H     -188.560     362.421    -427.454
  H     -182.299     369.749    -428.865
  H     -183.816     369.460    -427.994
  H     -187.780     360.900    -426.943
  P     -185.384     359.084    -429.573
  C     -186.808     357.872    -431.358
  O     -185.637     358.645    -431.097
  O     -186.435     358.670    -428.599
  O     -183.990     358.364    -429.242
  H     -184.161     357.581    -428.676
  H     -186.861     357.646    -432.403
  H     -187.675     358.429    -431.070
  H     -186.767     356.961    -430.798

 6  7  8  9  10  11  12  13  14  15  25  28  32  33  34  35 0
 6-311+G(2d,p)
 ****
 36  39  40 0
 6-311+G(2d,p)
 ****
 1  2  3  4  5  16  17  18  19  20  21  22  23  24 0
 3-21G
 ****
 26  27  29  30  31  37  38  41  42  43  44  45  46  47 0
 3-21G
 ****
 48 0
 3-21G
 ****


