%nproc=1
%NoSave
%Mem=1900MB
#P OB98/GEN NMR

erre ene a

0 1
  C     -201.770     521.025    -140.260
  O     -201.890     520.760    -141.644
  H     -200.727     520.895    -139.956
  H     -202.389     520.320    -139.698
  H     -202.075     522.047    -140.031
  P     -203.256     521.189    -142.356
  C     -202.409     523.409    -143.398
  O     -203.263     522.800    -142.442
  C     -202.228     524.900    -143.081
  O     -203.360     525.628    -143.615
  C     -202.153     525.198    -141.575
  O     -201.195     526.234    -141.357
  C     -203.551     525.714    -141.248
  O     -203.557     526.568    -140.103
  C     -203.925     526.415    -142.553
  N     -208.060     528.523    -140.592
  C     -206.721     528.688    -140.254
  N     -206.458     529.526    -139.237
  N     -205.749     528.073    -140.865
  C     -206.165     527.285    -141.884
  C     -207.440     527.035    -142.308
  C     -208.522     527.701    -141.611
  O     -209.720     527.573    -141.839
  N     -207.455     526.143    -143.353
  C     -206.186     525.852    -143.562
  N     -205.355     526.534    -142.699
  O     -204.366     520.874    -141.244
  O     -203.559     520.487    -143.641
  H     -204.485     526.632    -139.787
  H     -204.958     520.168    -141.560
  H     -208.773     529.011    -140.072
  H     -205.810     525.171    -144.308
  H     -203.505     527.426    -142.610
  H     -204.219     524.867    -141.051
  H     -207.151     530.079    -138.758
  H     -201.889     524.323    -140.976
  H     -205.480     529.704    -138.998
  H     -201.335     525.254    -143.599
  H     -202.857     523.308    -144.391
  H     -201.435     522.900    -143.396
  P     -199.671     525.916    -141.737
  C     -200.009     527.516    -143.741
  O     -199.445     526.304    -143.283
  O     -199.633     524.303    -141.759
  O     -198.670     526.466    -140.785
  H     -199.139     523.982    -140.979
  H     -199.782     527.645    -144.779
  H     -199.602     528.333    -143.182
  H     -201.070     527.488    -143.609

 6  7  8  9  10  11  12  13  14  15  26  29  33  34 0
 6-311+G(2d,p)
 ****
 36  38  39  40  41 0
 6-311+G(2d,p)
 ****
 1  2  3  4  5  16  17  18  19  20  21  22  23  24  25 0
 3-21G
 ****
 27  28  30  31  32  35  37  42  43  44  45  46  47 0
 3-21G
 ****
 48  49 0
 3-21G
 ****


