%nproc=1
%NoSave
%Mem=1900MB
#P OB98/GEN NMR

erre ene a

0 1
  C       67.164    -249.155     106.780
  O       68.465    -249.720     106.866
  P       68.612    -251.296     106.583
  C       68.574    -251.902     109.110
  O       67.936    -252.024     107.843
  C       67.696    -252.488     110.211
  O       66.453    -251.763     110.293
  C       67.310    -253.944     110.006
  O       68.334    -254.834     110.420
  C       66.104    -254.055     110.925
  O       66.543    -254.201     112.289
  C       65.427    -252.695     110.729
  N       60.372    -252.339     110.054
  C       61.132    -252.338     111.168
  N       62.472    -252.449     111.265
  C       63.028    -252.609     110.053
  C       62.375    -252.665     108.832
  C       60.980    -252.510     108.854
  N       60.207    -252.482     107.715
  N       63.280    -252.842     107.807
  C       64.455    -252.879     108.392
  N       64.358    -252.732     109.751
  O       70.177    -251.556     106.803
  O       68.149    -251.741     105.238
  H       65.755    -254.435     112.817
  H       70.449    -252.359     106.321
  H       60.593    -252.227     112.105
  H       65.400    -253.000     107.882
  H       65.006    -252.300     111.661
  H       65.475    -254.920     110.697
  H       67.000    -254.132     108.970
  H       68.224    -252.360     111.166
  H       68.751    -250.842     109.318
  H       59.250    -252.185     107.801
  H       60.683    -252.408     106.820
  H       69.540    -252.419     109.075
  P       68.444    -256.229     109.630
  C       67.420    -257.560     111.612
  O       67.306    -257.163     110.258
  O       69.808    -256.850     110.184
  O       68.441    -256.090     108.146
  H       70.193    -257.465     109.531
  H       66.447    -257.913     111.959
  H       67.735    -256.726     112.244
  H       68.141    -258.380     111.698
  H       67.216    -248.107     106.991
  H       66.521    -249.630     107.491
  H       66.776    -249.302     105.794

 3  4  5  6  7  8  9  10  11  12  22  25  29  30  31  32 0
 6-311+G(2d,p)
 ****
 33  36  37 0
 6-311+G(2d,p)
 ****
 1  2  13  14  15  16  17  18  19  20  21  23  24  26 0
 3-21G
 ****
 27  28  34  35  38  39  40  41  42  43  44  45  46  47  48 0
 3-21G
 ****


