%nproc=1
%NoSave
%Mem=1900MB
#P OB98/GEN NMR

erre ene a

0 1
  C     -361.454     504.232    -112.967
  O     -361.879     504.918    -111.792
  P     -360.907     506.026    -111.160
  C     -361.640     506.362    -108.635
  O     -361.659     506.800    -109.981
  C     -363.023     506.612    -108.007
  O     -364.015     505.755    -108.611
  C     -363.054     506.350    -106.505
  O     -362.652     507.483    -105.758
  C     -364.501     505.956    -106.281
  O     -365.340     507.123    -106.265
  C     -364.777     505.109    -107.550
  N     -364.433     503.673    -107.516
  C     -365.021     502.841    -106.565
  O     -365.828     503.218    -105.719
  N     -364.658     501.521    -106.615
  C     -363.919     500.926    -107.596
  O     -363.677     499.722    -107.621
  C     -363.448     501.817    -108.661
  C     -363.710     503.125    -108.566
  O     -360.783     507.123    -112.315
  O     -359.570     505.507    -110.736
  H     -366.187     506.866    -105.858
  H     -359.865     507.170    -112.641
  H     -365.015     500.913    -105.889
  H     -362.898     501.377    -109.484
  H     -363.361     503.794    -109.345
  H     -365.839     505.172    -107.827
  H     -364.635     505.471    -105.319
  H     -362.429     505.481    -106.262
  H     -363.313     507.650    -108.207
  H     -360.869     506.888    -108.069
  H     -361.395     505.295    -108.603
  P     -361.593     507.318    -104.566
  C     -362.931     508.441    -102.686
  O     -361.848     508.567    -103.583
  O     -360.172     507.101    -104.976
  O     -362.170     506.090    -103.713
  H     -361.731     505.246    -103.976
  H     -362.900     509.275    -101.976
  H     -362.857     507.498    -102.126
  H     -363.879     508.472    -103.228
  H     -362.206     503.531    -113.262
  H     -360.541     503.712    -112.766
  H     -361.296     504.938    -113.755

 3  4  5  6  7  8  9  10  11  12  13  23  28  29  30  31  32 0
 6-311+G(2d,p)
 ****
 33  34 0
 6-311+G(2d,p)
 ****
 1  2  14  15  16  17  18  19  20  21  22  24  25  26  27 0
 3-21G
 ****
 35  36  37  38  39  40  41  42  43  44  45 0
 3-21G
 ****


