%nproc=1
%NoSave
%Mem=1900MB
#P OB98/GEN NMR

erre ene a

0 1
  C     -339.730    -153.040     247.520
  O     -340.822    -152.181     247.233
  P     -340.483    -150.647     246.909
  C     -342.136    -148.673     246.529
  O     -341.813    -150.033     246.260
  C     -342.265    -147.887     245.228
  O     -340.967    -147.640     244.667
  C     -343.053    -148.610     244.146
  O     -344.443    -148.531     244.403
  C     -342.611    -147.857     242.896
  O     -343.419    -146.688     242.683
  C     -341.150    -147.466     243.242
  N     -340.174    -148.226     242.480
  C     -339.922    -147.764     241.183
  O     -340.527    -146.786     240.747
  N     -339.021    -148.449     240.402
  C     -338.428    -149.504     240.882
  N     -337.543    -150.138     240.071
  C     -338.684    -150.029     242.237
  C     -339.567    -149.357     242.974
  O     -339.475    -150.745     245.673
  O     -339.906    -149.877     248.050
  H     -343.146    -146.338     241.811
  H     -338.889    -149.967     245.639
  H     -338.163    -150.912     242.583
  H     -339.807    -149.675     243.980
  H     -340.985    -146.403     243.040
  H     -342.694    -148.474     241.998
  H     -342.737    -149.658     244.077
  H     -342.729    -146.915     245.457
  H     -337.393    -149.753     239.142
  H     -341.336    -148.225     247.132
  H     -337.016    -150.951     240.352
  H     -343.068    -148.635     247.105
  P     -345.327    -149.832     244.101
  C     -347.533    -150.736     245.052
  O     -346.462    -149.827     245.230
  O     -344.369    -151.016     244.592
  O     -345.788    -150.033     242.692
  H     -344.759    -151.879     244.369
  H     -348.143    -150.745     245.958
  H     -347.151    -151.745     244.871
  H     -348.153    -150.417     244.209
  H     -340.094    -154.027     247.716
  H     -339.206    -152.676     248.379
  H     -339.066    -153.065     246.681

 3  4  5  6  7  8  9  10  11  12  13  21  23  27  28  29  30  32 0
 6-311+G(2d,p)
 ****
 34  35 0
 6-311+G(2d,p)
 ****
 1  2  14  15  16  17  18  19  20  22  24  25  26 0
 3-21G
 ****
 31  33  36  37  38  39  40  41  42  43  44  45  46 0
 3-21G
 ****


