%nproc=1
%NoSave
%Mem=1900MB
#P OB98/GEN NMR

erre ene a

0 1
  C      -29.407     402.315    -136.006
  O      -30.228     401.165    -136.043
  H      -29.147     402.561    -134.974
  H      -28.486     402.111    -136.561
  H      -29.921     403.161    -136.473
  P      -31.622     401.246    -135.252
  C      -31.506     399.055    -133.851
  O      -32.044     399.718    -134.988
  C      -31.444     397.556    -134.124
  O      -32.773     397.043    -134.379
  C      -30.618     397.189    -135.354
  O      -29.228     397.140    -135.080
  C      -31.168     395.807    -135.664
  O      -30.616     394.848    -134.746
  C      -32.669     396.006    -135.394
  N      -35.314     394.359    -139.456
  C      -34.730     393.699    -138.431
  N      -34.063     394.212    -137.378
  C      -34.035     395.553    -137.437
  C      -34.593     396.362    -138.414
  C      -35.254     395.712    -139.471
  N      -35.822     396.380    -140.535
  N      -34.340     397.693    -138.145
  C      -33.660     397.683    -137.015
  N      -33.424     396.413    -136.565
  O      -32.666     401.720    -136.368
  O      -31.633     402.110    -134.036
  H      -29.651     394.827    -134.902
  H      -33.498     402.015    -135.952
  H      -34.807     392.616    -138.466
  H      -33.309     398.564    -136.491
  H      -33.147     395.102    -134.994
  H      -30.918     395.468    -136.673
  H      -30.834     397.857    -136.198
  H      -31.059     397.055    -133.229
  H      -32.151     399.244    -132.987
  H      -36.141     395.820    -141.310
  H      -35.657     397.369    -140.628
  H      -30.502     399.441    -133.645
  P      -28.299     398.264    -135.759
  C      -26.974     396.509    -137.140
  O      -26.926     397.536    -136.158
  O      -27.884     399.181    -134.516
  O      -28.962     399.045    -136.846
  H      -27.771     400.109    -134.794
  H      -25.989     396.121    -137.299
  H      -27.352     396.910    -138.057
  H      -27.617     395.723    -136.803

 6  7  8  9  10  11  12  13  14  15  25  28  32  33  34  35 0
 6-311+G(2d,p)
 ****
 36  39  40 0
 6-311+G(2d,p)
 ****
 1  2  3  4  5  16  17  18  19  20  21  22  23  24 0
 3-21G
 ****
 26  27  29  30  31  37  38  41  42  43  44  45  46  47 0
 3-21G
 ****
 48 0
 3-21G
 ****


