%nproc=1
%NoSave
%Mem=1900MB
#P OB98/GEN NMR

erre ene a

0 1
  C      394.830     167.022     634.591
  O      394.552     168.302     634.046
  P      393.016     168.749     633.925
  C      392.338     167.672     631.639
  O      392.679     168.849     632.364
  C      391.212     167.981     630.651
  O      390.003     168.338     631.352
  C      391.508     169.159     629.735
  O      392.378     168.792     628.674
  C      390.116     169.548     629.266
  O      389.698     168.729     628.162
  C      389.272     169.259     630.524
  N      388.902     170.468     631.244
  C      387.547     170.778     631.275
  O      386.695     170.088     630.715
  N      387.206     171.915     631.949
  C      388.066     172.797     632.530
  O      387.706     173.834     633.065
  C      389.493     172.442     632.441
  C      389.839     171.313     631.814
  O      393.011     170.265     634.420
  O      392.059     167.903     634.700
  H      388.829     169.070     627.867
  H      392.185     170.460     634.902
  H      386.221     172.140     632.001
  H      390.212     173.121     632.889
  H      390.891     171.038     631.721
  H      388.348     168.737     630.242
  H      390.071     170.590     628.928
  H      391.946     169.990     630.313
  H      391.015     167.078     630.058
  H      392.013     166.900     632.342
  H      393.224     167.312     631.111
  P      393.860     169.420     628.692
  C      393.463     171.704     627.484
  O      393.921     170.370     627.403
  O      394.738     168.126     628.306
  O      394.221     170.036     630.006
  H      394.256     167.526     627.699
  H      393.669     172.143     628.470
  H      392.391     171.722     627.305
  H      393.963     172.294     626.725
  H      395.888     166.864     634.609
  H      394.367     166.269     633.988
  H      394.444     166.967     635.588

 3  4  5  6  7  8  9  10  11  12  13  23  28  29  30  31  32 0
 6-311+G(2d,p)
 ****
 33  34 0
 6-311+G(2d,p)
 ****
 1  2  14  15  16  17  18  19  20  21  22  24  25  26 0
 3-21G
 ****
 27  35  36  37  38  39  40  41  42  43  44  45 0
 3-21G
 ****


