%nproc=1
%NoSave
%Mem=1900MB
#P OB98/GEN NMR

erre ene a

0 1
  C     -421.778      48.611       2.721
  O     -421.767      47.271       2.272
  H     -421.283      49.233       1.971
  H     -421.237      48.701       3.668
  H     -422.808      48.956       2.844
  P     -422.419      46.181       3.253
  C     -424.371      45.668       1.652
  O     -423.986      46.220       2.905
  C     -425.647      46.340       1.138
  O     -426.754      45.928       1.977
  C     -425.582      47.870       1.171
  O     -426.245      48.391       0.021
  C     -426.367      48.233       2.419
  O     -426.920      49.544       2.352
  C     -427.405      47.111       2.470
  N     -430.865      48.609       5.906
  C     -430.704      48.903       4.599
  N     -429.760      48.445       3.748
  C     -428.956      47.561       4.366
  C     -428.995      47.163       5.690
  C     -430.007      47.735       6.482
  N     -430.163      47.461       7.821
  N     -427.974      46.274       5.958
  C     -427.339      46.123       4.812
  N     -427.887      46.896       3.823
  O     -422.082      46.328       4.698
  O     -421.949      44.811       2.575
  H     -427.323      49.754       3.219
  H     -422.051      44.838       1.606
  H     -431.421      49.605       4.180
  H     -426.476      45.488       4.650
  H     -428.279      47.318       1.841
  H     -425.708      48.189       3.295
  H     -424.558      48.245       1.211
  H     -425.858      45.970       0.128
  H     -424.542      44.590       1.752
  H     -430.924      47.904       8.312
  H     -429.543      46.797       8.266
  H     -423.549      45.826       0.947
  P     -425.597      49.652      -0.727
  C     -426.552      49.172      -3.077
  O     -425.381      49.275      -2.272
  O     -424.426      50.282      -0.051
  O     -426.828      50.677      -0.801
  H     -426.493      51.585      -0.667
  H     -426.275      48.918      -4.079
  H     -427.068      50.109      -3.077
  H     -427.192      48.412      -2.680

 6  7  8  9  10  11  12  13  14  15  25  28  32  33  34  35 0
 6-311+G(2d,p)
 ****
 36  39  40 0
 6-311+G(2d,p)
 ****
 1  2  3  4  5  16  17  18  19  20  21  22  23  24 0
 3-21G
 ****
 26  27  29  30  31  37  38  41  42  43  44  45  46  47 0
 3-21G
 ****
 48 0
 3-21G
 ****


