%nproc=1
%NoSave
%Mem=1900MB
#P OB98/GEN NMR

erre ene a

0 1
  C      752.389     -31.286    -651.726
  O      751.877     -31.915    -650.571
  H      752.910     -32.033    -652.332
  H      753.100     -30.508    -651.440
  H      751.580     -30.852    -652.321
  P      750.898     -31.037    -649.647
  C      751.222     -28.590    -648.841
  O      751.800     -29.877    -649.002
  C      752.274     -27.591    -648.378
  O      753.265     -27.390    -649.406
  C      751.722     -26.209    -648.043
  O      751.177     -26.161    -646.728
  C      752.988     -25.370    -648.142
  O      753.795     -25.562    -646.962
  C      753.683     -26.002    -649.363
  N      754.371     -21.910    -652.286
  C      754.877     -22.200    -651.034
  N      755.679     -21.271    -650.474
  N      754.622     -23.310    -650.385
  C      753.800     -24.142    -651.058
  C      753.233     -23.970    -652.305
  C      753.535     -22.748    -653.011
  O      753.130     -22.448    -654.135
  N      752.465     -25.043    -652.664
  C      752.545     -25.859    -651.629
  N      753.336     -25.360    -650.629
  O      750.597     -32.003    -648.405
  O      749.636     -30.583    -650.302
  H      754.629     -25.071    -647.110
  H      749.672     -31.862    -648.112
  H      754.586     -21.039    -652.737
  H      752.050     -26.823    -651.559
  H      754.773     -25.979    -649.281
  H      752.784     -24.305    -648.226
  H      755.874     -20.374    -650.901
  H      751.001     -25.872    -648.794
  H      756.087     -21.477    -649.575
  H      752.786     -28.023    -647.505
  H      750.420     -28.647    -648.096
  H      750.796     -28.275    -649.798
  P      750.169     -24.960    -646.388
  C      750.624     -22.418    -646.711
  O      751.092     -23.662    -646.185
  O      749.690     -25.306    -644.898
  O      749.022     -24.811    -647.335
  H      748.827     -24.880    -644.719
  H      751.339     -21.650    -646.501
  H      749.688     -22.168    -646.256
  H      750.494     -22.505    -647.770

 6  7  8  9  10  11  12  13  14  15  26  29  33  34 0
 6-311+G(2d,p)
 ****
 36  38  39  40  41 0
 6-311+G(2d,p)
 ****
 1  2  3  4  5  16  17  18  19  20  21  22  23  24  25 0
 3-21G
 ****
 27  28  30  31  32  35  37  42  43  44  45  46  47 0
 3-21G
 ****
 48  49 0
 3-21G
 ****


