%nproc=1
%NoSave
%Mem=1900MB
#P OB98/GEN NMR

erre ene a

0 1
  C     -578.067     -77.101    -345.383
  O     -578.760     -76.964    -344.158
  H     -578.774     -77.166    -346.216
  H     -577.432     -76.222    -345.525
  H     -577.435     -77.996    -345.358
  P     -579.832     -78.109    -343.816
  C     -578.562     -78.953    -341.718
  O     -579.033     -79.256    -343.023
  C     -577.718     -80.102    -341.184
  O     -576.524     -80.256    -341.983
  C     -577.223     -79.918    -339.754
  O     -578.229     -80.210    -338.801
  C     -576.095     -80.942    -339.714
  O     -576.642     -82.255    -339.492
  C     -575.508     -80.846    -341.131
  N     -570.453     -80.878    -342.057
  C     -571.378     -81.867    -342.056
  N     -572.696     -81.788    -341.789
  C     -573.052     -80.522    -341.515
  C     -572.227     -79.410    -341.473
  C     -570.868     -79.622    -341.756
  N     -569.930     -78.609    -341.736
  N     -572.947     -78.277    -341.172
  C     -574.192     -78.691    -341.025
  N     -574.303     -80.043    -341.215
  O     -580.129     -78.782    -345.238
  O     -581.087     -77.633    -343.163
  H     -575.906     -82.884    -339.588
  H     -581.069     -79.045    -345.276
  H     -571.007     -82.857    -342.306
  H     -575.031     -78.052    -340.789
  H     -575.287     -81.840    -341.540
  H     -575.367     -80.751    -338.918
  H     -576.805     -78.912    -339.601
  H     -578.304     -81.027    -341.278
  H     -579.419     -78.797    -341.050
  H     -569.023     -78.785    -342.132
  H     -570.249     -77.671    -341.516
  H     -577.975     -78.028    -341.760
  P     -578.901     -78.974    -338.024
  C     -581.319     -79.531    -338.795
  O     -580.230     -78.615    -338.856
  O     -577.916     -77.755    -338.365
  O     -579.069     -79.161    -336.556
  H     -577.973     -77.075    -337.672
  H     -582.127     -79.164    -339.392
  H     -581.643     -79.633    -337.780
  H     -581.005     -80.484    -339.167

 6  7  8  9  10  11  12  13  14  15  25  28  32  33  34  35 0
 6-311+G(2d,p)
 ****
 36  39  40 0
 6-311+G(2d,p)
 ****
 1  2  3  4  5  16  17  18  19  20  21  22  23  24 0
 3-21G
 ****
 26  27  29  30  31  37  38  41  42  43  44  45  46  47  48 0
 3-21G
 ****


