%nproc=1
%NoSave
%Mem=1900MB
#P OB98/GEN NMR

erre ene a

0 1
  C      330.930     333.116    -277.145
  O      332.236     333.659    -277.206
  H      330.636     332.810    -278.152
  H      330.224     333.872    -276.793
  H      330.903     332.243    -276.491
  P      332.952     334.102    -275.842
  C      333.778     331.932    -274.737
  O      334.120     333.034    -275.566
  C      334.779     331.791    -273.589
  O      334.323     330.741    -272.700
  C      336.197     331.439    -274.048
  O      337.129     332.135    -273.216
  C      336.291     329.950    -273.784
  O      337.637     329.520    -273.569
  C      335.395     329.787    -272.559
  N      335.581     325.526    -269.851
  C      336.187     326.750    -269.632
  N      336.982     326.849    -268.544
  N      336.030     327.784    -270.415
  C      335.196     327.548    -271.459
  C      334.540     326.385    -271.785
  C      334.732     325.239    -270.916
  O      334.237     324.129    -271.067
  N      333.807     326.531    -272.936
  C      334.025     327.779    -273.306
  N      334.868     328.436    -272.449
  O      332.038     334.329    -274.681
  O      333.753     335.427    -276.236
  H      337.972     330.011    -272.790
  H      333.267     336.223    -275.950
  H      335.744     324.760    -269.221
  H      333.603     328.258    -274.183
  H      335.927     330.001    -271.623
  H      335.888     329.395    -274.643
  H      337.136     326.098    -267.887
  H      336.380     331.686    -275.099
  H      337.416     327.744    -268.351
  H      334.773     332.725    -273.009
  H      333.793     331.023    -275.349
  H      332.768     332.076    -274.339
  P      338.331     332.938    -273.907
  C      337.521     334.996    -275.236
  O      337.928     334.491    -273.968
  O      338.842     332.366    -275.188
  O      339.470     332.922    -272.771
  H      340.348     332.936    -273.205
  H      337.280     336.035    -275.146
  H      336.660     334.459    -275.574
  H      338.317     334.874    -275.941

 6  7  8  9  10  11  12  13  14  15  26  29  33  34 0
 6-311+G(2d,p)
 ****
 36  38  39  40  41 0
 6-311+G(2d,p)
 ****
 1  2  3  4  5  16  17  18  19  20  21  22  23  24  25 0
 3-21G
 ****
 27  28  30  31  32  35  37  42  43  44  45  46  47 0
 3-21G
 ****
 48  49 0
 3-21G
 ****


