%nproc=1
%NoSave
%Mem=1900MB
#P OB98/GEN NMR

erre ene a

0 1
  C      257.698     234.392     -96.615
  O      257.017     233.286     -97.221
  P      256.138     233.623     -98.526
  C      257.164     231.932    -100.209
  O      257.027     233.294     -99.823
  C      258.195     231.757    -101.327
  O      257.801     232.555    -102.469
  C      259.621     232.179    -100.957
  O      260.544     231.278    -101.586
  C      259.775     233.530    -101.629
  O      261.141     233.865    -101.859
  C      258.952     233.301    -102.896
  N      259.847     236.428    -106.767
  C      260.384     235.185    -106.495
  N      261.306     234.724    -107.366
  N      260.045     234.461    -105.459
  C      259.089     235.036    -104.693
  C      258.473     236.255    -104.863
  C      258.888     237.064    -105.988
  O      258.488     238.194    -106.254
  N      257.551     236.493    -103.873
  C      257.616     235.427    -103.103
  N      258.540     234.518    -103.554
  O      256.056     235.221     -98.506
  O      254.780     233.008     -98.511
  H      261.150     234.675    -102.403
  H      255.122     235.507     -98.509
  H      260.157     236.952    -107.566
  H      257.041     235.270    -102.201
  H      259.503     232.689    -103.623
  H      259.333     234.304    -100.994
  H      261.564     235.200    -108.215
  H      259.818     232.219     -99.880
  H      261.677     233.794    -107.208
  H      258.181     230.708    -101.645
  H      256.197     231.556    -100.554
  H      257.456     231.347     -99.331
  P      261.318     230.256    -100.620
  C      260.654     227.909    -101.523
  O      260.419     228.932    -100.575
  O      261.119     230.898     -99.169
  O      262.757     230.061    -100.962
  H      261.854     230.640     -98.580
  H      261.585     228.065    -102.078
  H      259.822     227.880    -102.232
  H      260.710     226.949    -101.003
  H      258.246     234.050     -95.762
  H      256.983     235.126     -96.308
  H      258.374     234.826     -97.322

 3  4  5  6  7  8  9  10  11  12  23  26  30  31  33  0
 6-311+G(2d,p)
 ****
 35  36  37  38 0
 6-311+G(2d,p)
 ****
 1  2  13  14  15  16  17  18  19  20  21  22  24  25  27  28  29 0
 3-21G
 ****
 32  34  39  40  41  42  43  44  45  46  47  48  49 0
 3-21G
 ****


