%nproc=1
%NoSave
%Mem=1900MB
#P OB98/GEN NMR

erre ene a

0 1
  C     -332.947    -436.278     364.618
  O     -333.083    -435.815     363.286
  H     -332.367    -435.544     365.184
  H     -332.413    -437.229     364.632
  H     -333.926    -436.392     365.093
  P     -334.061    -436.601     362.292
  C     -332.243    -438.081     361.210
  O     -333.184    -437.028     361.019
  C     -332.147    -438.930     359.948
  O     -333.385    -439.650     359.737
  C     -331.911    -438.126     358.673
  O     -330.564    -437.698     358.588
  C     -332.334    -439.137     357.616
  O     -331.285    -440.087     357.369
  C     -333.544    -439.816     358.309
  N     -334.830    -439.293     357.858
  C     -335.274    -439.714     356.608
  O     -334.611    -440.455     355.881
  N     -336.493    -439.234     356.208
  C     -337.260    -438.330     356.892
  O     -338.327    -437.895     356.463
  C     -336.732    -437.898     358.191
  C     -335.563    -438.388     358.610
  O     -335.347    -435.915     361.964
  O     -334.312    -437.996     363.037
  H     -330.590    -439.610     356.877
  H     -335.179    -437.981     363.486
  H     -336.825    -439.519     355.301
  H     -337.309    -437.175     358.755
  H     -335.150    -438.069     359.563
  H     -333.529    -440.899     358.117
  H     -332.569    -438.673     356.657
  H     -332.596    -437.269     358.634
  H     -331.348    -439.672     360.094
  H     -332.580    -438.705     362.049
  H     -331.270    -437.645     361.461
  P     -330.093    -436.341     359.291
  C     -329.147    -434.934     357.367
  O     -328.830    -435.782     358.465
  O     -329.881    -436.428     360.764
  O     -331.248    -435.295     358.934
  H     -331.800    -435.126     359.725
  H     -328.244    -434.619     356.888
  H     -329.681    -434.077     357.721
  H     -329.754    -435.469     356.667

 6  7  8  9  10  11  12  13  14  15  16  26  31  32  33  34  35 0
 6-311+G(2d,p)
 ****
 36  37 0
 6-311+G(2d,p)
 ****
 1  2  3  4  5  17  18  19  20  21  22  23  24  25 0
 3-21G
 ****
 27  28  29  30  38  39  40  41  42  43  44  45 0
 3-21G
 ****


