%nproc=1
%NoSave
%Mem=1900MB
#P OB98/GEN NMR

erre ene a

0 1
  C     -772.952     -64.614    -595.483
  O     -774.102     -64.774    -596.288
  H     -772.333     -63.819    -595.915
  H     -772.363     -65.542    -595.478
  H     -773.224     -64.333    -594.463
  P     -775.272     -65.754    -595.774
  C     -776.804     -63.916    -594.792
  O     -776.635     -64.906    -595.807
  C     -777.780     -62.822    -595.265
  O     -777.072     -61.945    -596.202
  C     -779.032     -63.359    -596.008
  O     -780.090     -62.427    -595.749
  C     -778.568     -63.282    -597.452
  O     -779.610     -63.472    -598.368
  C     -777.859     -61.916    -597.419
  N     -777.017     -61.630    -598.571
  C     -777.642     -61.245    -599.762
  O     -778.868     -61.132    -599.890
  N     -776.806     -60.992    -600.825
  C     -775.447     -61.073    -600.817
  O     -774.747     -60.797    -601.783
  C     -774.836     -61.483    -599.533
  C     -775.635     -61.721    -598.495
  O     -775.000     -66.472    -594.492
  O     -775.467     -66.774    -597.003
  H     -775.024     -67.620    -596.788
  H     -780.188     -64.203    -598.054
  H     -777.257     -60.707    -601.677
  H     -773.762     -61.573    -599.509
  H     -775.223     -62.035    -597.538
  H     -778.605     -61.131    -597.315
  H     -777.844     -64.089    -597.651
  H     -779.329     -64.349    -595.662
  H     -778.052     -62.207    -594.402
  H     -775.829     -63.472    -594.576
  H     -777.193     -64.390    -593.878
  P     -781.655     -62.798    -595.885
  C     -782.332     -62.561    -593.397
  O     -782.462     -62.034    -594.714
  O     -781.921     -64.279    -595.932
  O     -782.140     -62.093    -597.234
  H     -782.904     -62.569    -597.603
  H     -782.911     -61.970    -592.718
  H     -781.303     -62.537    -593.103
  H     -782.684     -63.571    -593.381

 6  7  8  9  10  11  12  13  14  15  16  27  31  32  33  34  35 0
 6-311+G(2d,p)
 ****
 36  37 0
 6-311+G(2d,p)
 ****
 1  2  3  4  5  17  18  19  20  21  22  23  24  25 0
 3-21G
 ****
 26  28  29  30  38  39  40  41  42  43  44  45 0
 3-21G
 ****


