%nproc=1
%NoSave
%Mem=1900MB
#P OB98/GEN NMR

erre ene a

0 1
  C        6.210     123.676     -38.582
  O        6.892     124.904     -38.741
  H        5.134     123.825     -38.707
  H        6.561     122.977     -39.346
  H        6.416     123.253     -37.596
  P        6.497     126.073     -37.715
  C        4.307     126.865     -38.844
  O        4.893     126.188     -37.742
  C        3.772     128.224     -38.400
  O        3.533     129.027     -39.587
  C        2.460     128.151     -37.601
  O        2.564     128.914     -36.392
  C        1.438     128.813     -38.505
  O        0.447     129.539     -37.785
  C        2.299     129.722     -39.373
  N       -2.015     131.426     -41.491
  C       -1.517     131.566     -40.243
  N       -0.318     131.172     -39.769
  C        0.414     130.604     -40.742
  C        0.051     130.414     -42.065
  C       -1.238     130.836     -42.430
  N       -1.767     130.644     -43.687
  N        1.066     129.789     -42.768
  C        2.007     129.566     -41.872
  N        1.652     130.028     -40.632
  O        6.985     127.401     -38.468
  O        7.116     125.949     -36.365
  H       -0.067     130.052     -38.435
  H        7.661     127.842     -37.920
  H       -2.173     132.054     -39.527
  H        2.935     129.039     -42.055
  H        2.530     130.668     -38.867
  H        0.938     128.043     -39.104
  H        2.173     127.124     -37.357
  H        4.548     128.734     -37.817
  H        3.479     126.268     -39.243
  H       -2.737     130.871     -43.828
  H       -1.233     130.105     -44.355
  H        5.061     126.989     -39.629
  P        2.782     128.071     -35.038
  C        0.348     127.882     -34.150
  O        1.447     127.219     -34.763
  O        2.766     129.199     -33.902
  O        4.054     127.292     -35.014
  H        3.591     129.158     -33.381
  H       -0.463     127.194     -34.031
  H        0.035     128.699     -34.766
  H        0.645     128.252     -33.191

 6  7  8  9  10  11  12  13  14  15  25  28  32  33  34  35 0
 6-311+G(2d,p)
 ****
 36  39  40 0
 6-311+G(2d,p)
 ****
 1  2  3  4  5  16  17  18  19  20  21  22  23  24 0
 3-21G
 ****
 26  27  29  30  31  37  38  41  42  43  44  45  46  47  48 0
 3-21G
 ****


