%nproc=1
%NoSave
%Mem=1900MB
#P OB98/GEN NMR

erre ene a

0 1
  C     1140.464     335.437     142.921
  O     1139.450     335.321     141.946
  H     1141.373     334.935     142.585
  H     1140.682     336.498     143.080
  H     1140.127     335.005     143.867
  P     1139.006     333.834     141.537
  C     1140.363     334.241     139.365
  O     1139.183     333.708     139.944
  C     1140.359     334.003     137.861
  O     1140.410     332.572     137.618
  C     1139.130     334.565     137.124
  O     1139.541     335.483     136.111
  C     1138.501     333.353     136.448
  O     1138.024     333.629     135.140
  C     1139.634     332.329     136.445
  N     1139.007     328.173     133.567
  C     1139.864     329.204     133.463
  N     1140.052     330.229     134.317
  C     1139.258     330.102     135.395
  C     1138.353     329.084     135.655
  C     1138.227     328.091     134.674
  N     1137.309     327.066     134.751
  N     1137.710     329.302     136.858
  C     1138.188     330.444     137.298
  N     1139.118     330.979     136.439
  O     1137.418     333.855     141.741
  O     1139.649     332.740     142.327
  H     1137.704     332.779     134.768
  H     1137.143     333.070     142.248
  H     1140.477     329.219     132.560
  H     1137.880     330.956     138.199
  H     1140.293     332.450     135.571
  H     1137.652     333.002     137.062
  H     1138.417     335.049     137.802
  H     1141.279     334.432     137.441
  H     1141.242     333.739     139.803
  H     1137.203     326.471     133.944
  H     1136.647     327.068     135.513
  H     1140.423     335.311     139.594
  P     1139.506     337.043     136.497
  C     1137.309     337.664     135.250
  O     1138.719     337.811     135.325
  O     1141.027     337.501     136.279
  O     1139.031     337.317     137.881
  H     1141.231     338.269     136.849
  H     1136.935     338.231     134.424
  H     1136.865     338.018     136.157
  H     1137.065     336.631     135.113

 6  7  8  9  10  11  12  13  14  15  25  28  32  33  34  35 0
 6-311+G(2d,p)
 ****
 36  39  40 0
 6-311+G(2d,p)
 ****
 1  2  3  4  5  16  17  18  19  20  21  22  23  24 0
 3-21G
 ****
 26  27  29  30  31  37  38  41  42  43  44  45  46  47  48 0
 3-21G
 ****


