%nproc=1
%NoSave
%Mem=1900MB
#P OB98/GEN NMR

erre ene a

0 1
  C       79.135      66.823      14.700
  O       79.177      65.481      15.132
  P       80.290      64.466      14.592
  C       80.479      62.798      12.637
  O       79.744      63.881      13.197
  C       79.527      61.675      12.209
  O       78.849      61.160      13.398
  C       78.447      62.151      11.217
  O       78.356      61.372      10.024
  C       77.193      62.182      12.075
  O       75.988      62.131      11.335
  C       77.456      61.030      13.051
  N       76.583      61.076      14.221
  C       75.237      60.787      14.020
  O       74.744      60.488      12.936
  N       74.428      60.911      15.116
  C       74.798      61.396      16.334
  O       74.000      61.574      17.243
  C       76.226      61.722      16.475
  C       77.046      61.531      15.439
  O       80.731      63.424      15.563
  O       81.463      65.442      14.105
  H       76.048      61.378      10.718
  H       81.209      66.074      13.411
  H       73.450      60.704      14.984
  H       76.547      62.119      17.427
  H       78.103      61.762      15.514
  H       77.331      60.060      12.566
  H       77.188      63.131      12.626
  H       78.665      63.163      10.856
  H       80.130      60.871      11.780
  H       81.169      62.414      13.392
  H       81.079      63.153      11.793
  P       78.055      61.956       8.565
  C       76.024      63.081       7.395
  O       76.640      62.701       8.608
  O       78.224      60.985       7.445
  O       79.097      63.164       8.425
  H       79.329      63.288       7.486
  H       75.400      63.960       7.580
  H       75.384      62.266       7.047
  H       76.761      63.323       6.626
  H       78.321      67.326      15.178
  H       78.999      66.852      13.639
  H       80.054      67.309      14.955

 3  4  5  6  7  8  9  10  11  12  13  23  28  29  30  31  32 0
 6-311+G(2d,p)
 ****
 33  34 0
 6-311+G(2d,p)
 ****
 1  2  14  15  16  17  18  19  20  21  22  24  25  26  27 0
 3-21G
 ****
 35  36  37  38  39  40  41  42  43  44  45 0
 3-21G
 ****


