%nproc=1
%NoSave
%Mem=1900MB
#P OB98/GEN NMR

erre ene a

0 1
  C      -48.893     197.404     302.204
  O      -49.980     198.058     302.831
  P      -50.754     197.365     304.052
  C      -52.501     196.464     302.378
  O      -51.562     196.138     303.402
  C      -53.461     195.304     302.130
  O      -52.768     194.191     301.526
  C      -54.111     194.752     303.390
  O      -55.153     195.603     303.827
  C      -54.571     193.379     302.910
  O      -55.824     193.468     302.213
  C      -53.434     192.982     301.943
  N      -52.506     192.031     302.542
  C      -53.063     190.814     302.961
  O      -54.271     190.613     302.853
  N      -52.239     189.879     303.549
  C      -50.980     190.147     303.714
  N      -50.221     189.189     304.307
  C      -50.362     191.425     303.310
  C      -51.175     192.311     302.738
  O      -51.563     198.288     304.900
  O      -49.577     196.630     304.859
  H      -56.513     193.555     302.904
  H      -49.028     197.278     305.362
  H      -49.311     191.606     303.482
  H      -50.806     193.278     302.416
  H      -53.851     192.527     301.032
  H      -54.712     192.679     303.739
  H      -53.353     194.631     304.174
  H      -54.233     195.647     301.425
  H      -50.688     188.337     304.598
  H      -51.946     196.679     301.459
  H      -49.241     189.304     304.518
  H      -53.049     197.366     302.668
  P      -55.183     196.110     305.347
  C      -56.793     194.251     306.083
  O      -55.523     194.850     306.277
  O      -56.008     197.329     305.599
  O      -53.641     196.392     305.678
  H      -53.568     197.241     306.157
  H      -56.774     193.244     306.511
  H      -57.037     194.186     305.021
  H      -57.553     194.840     306.600
  H      -48.511     198.021     301.418
  H      -49.224     196.472     301.797
  H      -48.122     197.225     302.923

 3  4  5  6  7  8  9  10  11  12  13  23  27  28  29  30  32 0
 6-311+G(2d,p)
 ****
 34  35 0
 6-311+G(2d,p)
 ****
 1  2  14  15  16  17  18  19  20  21  22  24  25  26 0
 3-21G
 ****
 31  33  36  37  38  39  40  41  42  43  44  45  46 0
 3-21G
 ****


