%nproc=1
%NoSave
%Mem=1900MB
#P OB98/GEN NMR

erre ene a

0 1
  C      307.507      31.594    -612.908
  O      308.793      31.377    -613.461
  H      306.756      31.364    -613.670
  H      307.400      32.644    -612.619
  H      307.350      30.951    -612.040
  P      310.038      31.495    -612.460
  C      310.366      29.192    -611.239
  O      309.768      30.481    -611.243
  C      311.551      29.171    -610.279
  O      311.112      29.164    -608.903
  C      312.409      27.915    -610.386
  O      313.177      27.877    -611.565
  C      313.236      28.045    -609.111
  O      314.313      28.981    -609.291
  C      312.186      28.592    -608.118
  N      311.700      27.570    -607.198
  C      312.093      27.720    -605.860
  O      312.792      28.669    -605.518
  N      311.698      26.770    -604.956
  C      310.967      25.767    -605.335
  N      310.616      24.858    -604.394
  C      310.511      25.592    -606.730
  C      310.918      26.520    -607.603
  O      309.813      32.927    -611.788
  O      311.382      31.313    -613.090
  H      313.907      29.803    -609.625
  H      308.929      33.036    -611.394
  H      309.890      24.749    -607.006
  H      310.628      26.459    -608.643
  H      312.615      29.413    -607.519
  H      313.694      27.091    -608.821
  H      311.782      27.021    -610.284
  H      312.150      30.080    -610.447
  H      310.963      25.002    -603.446
  H      310.683      28.905    -612.249
  H      310.078      24.025    -604.580
  H      309.606      28.470    -610.918
  P      313.216      26.545    -612.464
  C      312.544      27.908    -614.544
  O      312.222      26.800    -613.699
  O      312.970      25.271    -611.724
  O      314.652      26.621    -613.164
  H      314.795      27.410    -613.719
  H      311.819      27.982    -615.327
  H      313.515      27.762    -614.969
  H      312.539      28.809    -613.968

 6  7  8  9  10  11  12  13  14  15  16  26  30  31  32  33  35 0
 6-311+G(2d,p)
 ****
 37  38 0
 6-311+G(2d,p)
 ****
 1  2  3  4  5  17  18  19  20  21  22  23  24  25 0
 3-21G
 ****
 27  28  29  34  36  39  40  41  42  43  44  45  46 0
 3-21G
 ****


