%nproc=1
%NoSave
%Mem=1900MB
#P OB98/GEN NMR

erre ene a

0 1
  C     -110.424     -14.239      -1.479
  O     -111.542     -14.636      -2.257
  P     -112.309     -13.589      -3.201
  C     -114.552     -12.611      -2.411
  O     -113.146     -12.662      -2.196
  C     -115.230     -13.797      -1.730
  O     -114.752     -13.875      -0.366
  C     -116.753     -13.721      -1.616
  O     -117.454     -14.163      -2.770
  C     -117.001     -14.697      -0.473
  O     -116.936     -16.049      -0.965
  C     -115.818     -14.414       0.457
  N     -117.935     -13.849       5.082
  C     -117.723     -14.939       4.311
  N     -117.170     -15.005       3.080
  C     -116.776     -13.787       2.674
  C     -116.918     -12.586       3.351
  C     -117.530     -12.645       4.615
  N     -117.722     -11.534       5.408
  N     -116.409     -11.541       2.602
  C     -115.956     -12.108       1.503
  N     -116.147     -13.463       1.503
  O     -113.083     -14.210      -4.310
  O     -111.157     -12.609      -3.719
  H     -116.063     -16.153      -1.392
  H     -111.471     -12.107      -4.497
  H     -118.046     -15.887       4.735
  H     -115.488     -11.580       0.684
  H     -115.432     -15.322       0.935
  H     -117.985     -14.574      -0.014
  H     -117.082     -12.719      -1.312
  H     -114.924     -14.715      -2.248
  H     -114.737     -12.662      -3.491
  H     -118.049     -11.688       6.349
  H     -117.277     -10.668       5.134
  H     -114.947     -11.662      -2.039
  P     -118.910     -13.529      -3.029
  C     -120.844     -15.144      -2.317
  O     -119.872     -14.195      -1.933
  O     -119.384     -13.621      -4.438
  O     -118.739     -12.025      -2.507
  H     -118.605     -11.931      -1.551
  H     -121.277     -15.588      -1.416
  H     -120.398     -15.940      -2.917
  H     -121.642     -14.656      -2.885
  H     -110.060     -15.078      -0.924
  H     -110.718     -13.464      -0.802
  H     -109.652     -13.875      -2.124

 3  4  5  6  7  8  9  10  11  12  22  25  29  30  31  32 0
 6-311+G(2d,p)
 ****
 33  36  37 0
 6-311+G(2d,p)
 ****
 1  2  13  14  15  16  17  18  19  20  21  23  24  26 0
 3-21G
 ****
 27  28  34  35  38  39  40  41  42  43  44  45  46  47  48 0
 3-21G
 ****


