%nproc=1
%NoSave
%Mem=1900MB
#P OB98/GEN NMR

erre ene a

0 1
  C     -148.652     731.193     563.568
  O     -149.898     731.647     563.081
  H     -148.827     730.362     564.255
  H     -148.152     731.995     564.115
  H     -148.012     730.845     562.755
  P     -149.921     732.664     561.844
  C     -152.187     731.825     560.937
  O     -151.469     732.919     561.495
  C     -153.702     732.065     561.023
  O     -154.104     732.008     562.422
  C     -154.142     733.431     560.471
  O     -155.463     733.269     559.942
  C     -154.179     734.273     561.730
  O     -154.935     735.450     561.546
  C     -154.738     733.260     562.735
  N     -154.509     733.661     564.125
  C     -155.643     733.887     564.901
  O     -156.790     733.796     564.464
  N     -155.410     734.272     566.197
  C     -154.189     734.502     566.758
  O     -154.040     734.881     567.910
  C     -153.033     734.294     565.874
  C     -153.237     733.888     564.619
  O     -149.072     732.287     560.674
  O     -149.474     734.066     562.474
  H     -155.893     735.245     561.561
  H     -149.011     734.604     561.805
  H     -156.221     734.431     566.777
  H     -152.045     734.479     566.280
  H     -152.403     733.720     563.946
  H     -155.824     733.138     562.602
  H     -153.170     734.580     562.024
  H     -153.469     733.829     559.709
  H     -154.212     731.244     560.507
  H     -151.923     730.925     561.508
  H     -151.891     731.685     559.895
  P     -155.741     733.158     558.366
  C     -158.074     732.382     559.158
  O     -157.331     733.029     558.131
  O     -154.936     732.105     557.672
  O     -155.400     734.607     557.783
  H     -155.110     734.529     556.857
  H     -159.109     732.358     558.888
  H     -157.957     732.920     560.076
  H     -157.715     731.382     559.282

 6  7  8  9  10  11  12  13  14  15  16  26  31  32  33  34  35 0
 6-311+G(2d,p)
 ****
 36  37 0
 6-311+G(2d,p)
 ****
 1  2  3  4  5  17  18  19  20  21  22  23  24  25 0
 3-21G
 ****
 27  28  29  30  38  39  40  41  42  43  44  45 0
 3-21G
 ****


