%nproc=1
%NoSave
%Mem=1900MB
#P OB98/GEN NMR

erre ene a

0 1
  C     -209.280     -78.357      76.653
  O     -207.894     -78.511      76.883
  H     -209.537     -78.859      75.716
  H     -209.531     -77.297      76.559
  H     -209.863     -78.807      77.461
  P     -207.289     -78.043      78.290
  C     -207.198     -75.844      79.636
  O     -207.540     -76.463      78.403
  C     -208.173     -74.708      79.937
  O     -209.491     -75.239      80.194
  C     -207.810     -73.886      81.169
  O     -206.739     -73.004      80.892
  C     -209.141     -73.212      81.461
  O     -209.338     -72.077      80.600
  C     -210.141     -74.343      81.123
  N     -210.615     -75.064      82.302
  C     -211.459     -74.365      83.159
  O     -211.777     -73.191      82.978
  N     -211.918     -75.063      84.248
  C     -211.553     -76.330      84.597
  O     -211.951     -76.891      85.615
  C     -210.630     -77.009      83.675
  C     -210.212     -76.356      82.587
  O     -205.888     -78.476      78.572
  O     -208.317     -78.647      79.362
  H     -209.390     -72.425      79.688
  H     -207.949     -79.462      79.749
  H     -212.521     -74.568      84.885
  H     -210.316     -78.015      83.922
  H     -209.527     -76.838      81.895
  H     -211.015     -73.934      80.599
  H     -209.212     -72.847      82.486
  H     -207.563     -74.550      82.008
  H     -208.237     -74.069      79.047
  H     -206.180     -75.440      79.555
  H     -207.222     -76.598      80.429
  P     -205.979     -72.243      82.074
  C     -206.344     -70.164      83.529
  O     -206.899     -71.004      82.524
  O     -204.555     -71.889      81.795
  O     -206.093     -73.246      83.318
  H     -205.229     -73.671      83.479
  H     -207.031     -69.376      83.755
  H     -205.425     -69.745      83.176
  H     -206.158     -70.739      84.412

 6  7  8  9  10  11  12  13  14  15  16  26  31  32  33  34  35 0
 6-311+G(2d,p)
 ****
 36  37 0
 6-311+G(2d,p)
 ****
 1  2  3  4  5  17  18  19  20  21  22  23  24  25 0
 3-21G
 ****
 27  28  29  30  38  39  40  41  42  43  44  45 0
 3-21G
 ****


