%nproc=1
%NoSave
%Mem=1900MB
#P OB98/GEN NMR

erre ene a

0 1
  C     -213.077    -133.343     851.520
  O     -213.338    -132.186     850.708
  P     -213.913    -132.279     849.218
  C     -216.192    -131.147     849.630
  O     -215.511    -132.346     849.268
  C     -217.615    -131.432     850.122
  O     -217.594    -132.069     851.409
  C     -218.493    -130.201     850.287
  O     -218.944    -129.707     849.044
  C     -219.591    -130.744     851.201
  O     -220.590    -131.443     850.436
  C     -218.809    -131.721     852.101
  N     -218.533    -131.160     853.420
  C     -218.933    -131.928     854.520
  O     -219.541    -132.986     854.354
  N     -218.656    -131.461     855.781
  C     -218.096    -130.299     855.930
  N     -217.844    -129.895     857.205
  C     -217.745    -129.419     854.804
  C     -217.986    -129.910     853.587
  O     -213.285    -133.362     848.392
  O     -213.621    -130.847     848.566
  H     -220.194    -132.295     850.174
  H     -213.473    -130.952     847.607
  H     -217.305    -128.449     854.971
  H     -217.745    -129.338     852.700
  H     -219.366    -132.652     852.223
  H     -220.110    -129.953     851.757
  H     -217.932    -129.419     850.828
  H     -218.080    -132.131     849.407
  H     -218.094    -130.519     857.954
  H     -216.235    -130.501     848.748
  H     -217.412    -129.010     857.429
  H     -215.617    -130.637     850.415
  P     -218.027    -128.682     848.215
  C     -217.690    -130.390     846.328
  O     -217.069    -129.540     847.268
  O     -217.353    -127.626     849.026
  O     -219.055    -128.028     847.166
  H     -218.777    -127.113     846.982
  H     -216.991    -130.594     845.513
  H     -218.596    -129.927     845.913
  H     -217.964    -131.330     846.812
  H     -212.699    -133.033     852.472
  H     -212.354    -133.964     851.034
  H     -213.984    -133.893     851.659

 3  4  5  6  7  8  9  10  11  12  13  23  27  28  29  30  32 0
 6-311+G(2d,p)
 ****
 34  35 0
 6-311+G(2d,p)
 ****
 1  2  14  15  16  17  18  19  20  21  22  24  25  26 0
 3-21G
 ****
 31  33  36  37  38  39  40  41  42  43  44  45  46 0
 3-21G
 ****


