%nproc=1
%NoSave
%Mem=1900MB
#P OB98/GEN NMR

erre ene a

0 1
  C     -111.578    -518.202     306.193
  O     -112.328    -516.982     306.276
  P     -113.921    -517.073     306.465
  C     -114.006    -515.715     308.657
  O     -114.268    -516.963     308.023
  C     -114.875    -515.556     309.928
  O     -116.272    -515.683     309.589
  C     -114.555    -516.598     311.004
  O     -114.314    -516.025     312.295
  C     -115.731    -517.567     310.923
  O     -115.945    -518.295     312.130
  C     -116.880    -516.669     310.451
  N     -117.931    -517.439     309.780
  C     -118.296    -518.643     310.381
  O     -117.727    -519.110     311.371
  N     -119.285    -519.352     309.747
  C     -119.894    -518.999     308.584
  O     -120.758    -519.699     308.060
  C     -119.438    -517.753     307.960
  C     -118.490    -517.042     308.592
  O     -114.605    -518.167     305.738
  O     -114.414    -515.632     305.917
  H     -115.221    -518.953     312.232
  H     -115.242    -515.773     305.417
  H     -119.579    -520.212     310.191
  H     -119.871    -517.461     307.014
  H     -118.112    -516.120     308.150
  H     -117.340    -516.145     311.292
  H     -115.501    -518.296     310.130
  H     -113.629    -517.142     310.784
  H     -114.704    -514.537     310.315
  H     -114.230    -514.905     307.978
  H     -112.941    -515.631     308.900
  P     -112.887    -515.535     312.821
  C     -113.620    -513.056     312.776
  O     -112.683    -514.011     312.347
  O     -111.740    -516.450     312.520
  O     -113.090    -515.426     314.404
  H     -112.302    -515.736     314.863
  H     -113.568    -512.191     312.090
  H     -113.403    -512.697     313.781
  H     -114.653    -513.439     312.724
  H     -110.540    -517.975     306.069
  H     -111.920    -518.775     305.356
  H     -111.715    -518.767     307.092

 3  4  5  6  7  8  9  10  11  12  13  23  28  29  30  31  32 0
 6-311+G(2d,p)
 ****
 33  34 0
 6-311+G(2d,p)
 ****
 1  2  14  15  16  17  18  19  20  21  22  24  25  26  27 0
 3-21G
 ****
 35  36  37  38  39  40  41  42  43  44  45 0
 3-21G
 ****


