%nproc=1
%NoSave
%Mem=1900MB
#P OB98/GEN NMR

erre ene a

0 1
  C       96.982     618.998     161.042
  O       95.827     619.337     161.782
  H       96.779     618.086     160.477
  H       97.822     618.820     161.715
  H       97.229     619.801     160.344
  P       95.957     620.596     162.773
  C       94.591     621.965     161.019
  O       94.712     621.527     162.368
  C       93.127     621.965     160.599
  O       92.589     620.623     160.622
  C       92.204     622.781     161.508
  O       92.291     624.174     161.286
  C       90.862     622.220     161.086
  O       90.497     622.757     159.800
  C       91.185     620.719     160.996
  N       90.938     620.000     162.251
  C       89.719     619.317     162.354
  O       88.905     619.339     161.427
  N       89.426     618.658     163.525
  C       90.284     618.659     164.500
  N       89.938     617.991     165.631
  C       91.586     619.349     164.425
  C       91.843     619.988     163.288
  O       97.205     621.406     162.185
  O       96.054     620.277     164.228
  H       90.312     623.704     159.934
  H       97.282     622.280     162.636
  H       92.261     619.330     165.266
  H       92.784     620.519     163.160
  H       90.603     620.235     160.197
  H       90.053     622.471     161.771
  H       92.372     622.545     162.567
  H       93.075     622.320     159.563
  H       89.017     617.578     165.670
  H       95.163     621.280     160.385
  H       90.470     618.057     166.493
  H       95.000     622.974     160.917
  P       92.516     625.116     162.568
  C       94.992     625.818     162.152
  O       93.620     626.203     162.162
  O       93.293     624.158     163.586
  O       91.261     625.670     163.168
  H       93.042     624.355     164.511
  H       95.595     626.653     161.862
  H       95.133     625.017     161.456
  H       95.279     625.494     163.131

 6  7  8  9  10  11  12  13  14  15  16  26  30  31  32  33  35 0
 6-311+G(2d,p)
 ****
 37  38 0
 6-311+G(2d,p)
 ****
 1  2  3  4  5  17  18  19  20  21  22  23  24  25 0
 3-21G
 ****
 27  28  29  34  36  39  40  41  42  43  44  45  46 0
 3-21G
 ****


