%nproc=1
%NoSave
%Mem=1900MB
#P OB98/GEN NMR

erre ene a

0 1
  C     -241.898     249.607     318.551
  O     -241.070     248.496     318.839
  P     -240.940     248.039     320.370
  C     -240.530     245.774     321.592
  O     -240.875     246.438     320.386
  C     -241.163     244.379     321.613
  O     -242.599     244.479     321.726
  C     -240.905     243.578     320.343
  O     -239.604     243.014     320.342
  C     -242.015     242.537     320.409
  O     -241.641     241.432     321.251
  C     -243.170     243.340     321.044
  N     -244.178     243.740     320.069
  C     -244.931     242.708     319.518
  O     -244.757     241.525     319.805
  N     -245.869     243.078     318.592
  C     -246.086     244.345     318.130
  O     -246.903     244.608     317.259
  C     -245.238     245.391     318.729
  C     -244.334     245.044     319.648
  O     -242.379     248.367     320.989
  O     -239.843     248.710     321.126
  H     -242.276     240.715     321.066
  H     -242.281     248.663     321.919
  H     -246.443     242.351     318.200
  H     -245.382     246.410     318.388
  H     -243.692     245.800     320.090
  H     -243.660     242.742     321.821
  H     -242.249     242.121     319.426
  H     -241.060     244.210     319.463
  H     -240.787     243.841     322.492
  H     -240.896     246.356     322.444
  H     -239.440     245.702     321.667
  P     -238.937     242.729     318.908
  C     -236.497     242.150     318.174
  O     -237.370     242.559     319.204
  O     -239.080     244.169     318.222
  O     -239.598     241.615     318.168
  H     -239.016     244.890     318.867
  H     -236.798     242.560     317.206
  H     -236.484     241.059     318.122
  H     -235.489     242.504     318.410
  H     -241.889     249.795     317.498
  H     -241.533     250.468     319.071
  H     -242.899     249.398     318.867

 3  4  5  6  7  8  9  10  11  12  13  23  28  29  30  31  32 0
 6-311+G(2d,p)
 ****
 33  34 0
 6-311+G(2d,p)
 ****
 1  2  14  15  16  17  18  19  20  21  22  24  25  26 0
 3-21G
 ****
 27  35  36  37  38  39  40  41  42  43  44  45 0
 3-21G
 ****


