%nproc=1
%NoSave
%Mem=1900MB
#P OB98/GEN NMR

erre ene a

0 1
  C     -825.064     -24.754     219.115
  O     -826.171     -25.583     218.769
  P     -826.590     -25.708     217.227
  C     -827.925     -27.745     218.079
  O     -827.854     -26.686     217.128
  C     -829.244     -27.697     218.855
  O     -829.240     -26.649     219.851
  C     -830.449     -27.403     217.973
  O     -830.798     -28.545     217.204
  C     -831.476     -26.975     219.009
  O     -832.102     -28.116     219.618
  C     -830.609     -26.227     220.049
  N     -830.728     -24.782     219.965
  C     -832.026     -24.268     220.085
  O     -832.986     -25.033     220.209
  N     -832.198     -22.905     220.042
  C     -831.175     -22.128     219.888
  N     -831.412     -20.788     219.856
  C     -829.796     -22.626     219.744
  C     -829.649     -23.950     219.785
  O     -825.475     -26.015     216.279
  O     -827.235     -24.273     216.918
  H     -831.377     -28.750     219.806
  H     -827.082     -24.061     215.975
  H     -828.969     -21.934     219.623
  H     -828.669     -24.400     219.683
  H     -830.887     -26.532     221.062
  H     -832.276     -26.372     218.557
  H     -830.221     -26.563     217.305
  H     -829.375     -28.663     219.362
  H     -832.367     -20.473     219.944
  H     -827.083     -27.661     218.775
  H     -830.676     -20.105     219.792
  H     -827.807     -28.699     217.554
  P     -830.360     -28.563     215.658
  C     -829.426     -30.929     215.148
  O     -830.541     -30.064     215.121
  O     -828.768     -28.388     215.736
  O     -830.989     -27.493     214.819
  H     -828.464     -27.872     214.964
  H     -829.782     -31.961     215.054
  H     -828.874     -30.833     216.089
  H     -828.764     -30.706     214.307
  H     -824.917     -24.779     220.175
  H     -825.261     -23.749     218.806
  H     -824.183     -25.112     218.624

 3  4  5  6  7  8  9  10  11  12  13  23  27  28  29  30  32 0
 6-311+G(2d,p)
 ****
 34  35 0
 6-311+G(2d,p)
 ****
 1  2  14  15  16  17  18  19  20  21  22  24  25  26 0
 3-21G
 ****
 31  33  36  37  38  39  40  41  42  43  44  45  46 0
 3-21G
 ****


