%nproc=1
%NoSave
%Mem=1900MB
#P OB98/GEN NMR

erre ene a

0 1
  C      -60.157     -69.649       3.427
  O      -60.917     -68.489       3.168
  H      -60.679     -70.247       4.178
  H      -59.176     -69.370       3.820
  H      -60.034     -70.252       2.524
  P      -60.556     -67.600       1.888
  C      -60.358     -69.658       0.343
  O      -61.019     -68.426       0.594
  C      -60.443     -70.027      -1.143
  O      -61.839     -70.104      -1.530
  C      -59.794     -68.956      -2.026
  O      -59.291     -69.498      -3.244
  C      -60.958     -68.031      -2.340
  O      -60.759     -67.262      -3.527
  C      -62.116     -69.022      -2.434
  N      -66.838     -67.981      -4.047
  C      -65.749     -68.433      -4.766
  N      -65.948     -68.637      -6.090
  N      -64.570     -68.643      -4.242
  C      -64.500     -68.329      -2.926
  C      -65.502     -67.852      -2.112
  C      -66.811     -67.657      -2.697
  O      -67.803     -67.237      -2.110
  N      -65.049     -67.641      -0.834
  C      -63.778     -67.984      -0.875
  N      -63.403     -68.432      -2.117
  O      -58.959     -67.692       1.802
  O      -61.023     -66.177       1.937
  H      -61.585     -66.774      -3.701
  H      -58.603     -66.939       1.299
  H      -67.730     -67.864      -4.493
  H      -63.095     -67.943      -0.036
  H      -62.186     -69.440      -3.446
  H      -61.067     -67.325      -1.514
  H      -66.774     -68.302      -6.560
  H      -58.995     -68.421      -1.519
  H      -65.108     -68.661      -6.674
  H      -60.014     -71.021      -1.308
  H      -60.852     -70.415       0.956
  H      -59.319     -69.604       0.668
  P      -57.716     -69.757      -3.374
  C      -56.584     -71.158      -1.435
  O      -57.327     -71.116      -2.633
  O      -57.068     -68.622      -2.455
  O      -57.196     -69.707      -4.777
  H      -56.542     -68.005      -2.998
  H      -56.450     -72.176      -1.134
  H      -57.110     -70.626      -0.670
  H      -55.628     -70.704      -1.592

 6  7  8  9  10  11  12  13  14  15  26  29  33  34 0
 6-311+G(2d,p)
 ****
 36  38  39  40  41 0
 6-311+G(2d,p)
 ****
 1  2  3  4  5  16  17  18  19  20  21  22  23  24  25 0
 3-21G
 ****
 27  28  30  31  32  35  37  42  43  44  45  46  47 0
 3-21G
 ****
 48  49 0
 3-21G
 ****


