%nproc=1
%NoSave
%Mem=1900MB
#P OB98/GEN NMR

erre ene a

0 1
  C       13.426    -167.201     157.097
  O       13.333    -168.298     156.204
  P       14.282    -169.573     156.368
  C       15.522    -169.088     154.105
  O       15.594    -169.341     155.491
  C       16.945    -168.988     153.543
  O       17.638    -167.872     154.136
  C       17.753    -170.252     153.833
  O       17.689    -171.149     152.736
  C       19.144    -169.706     154.089
  O       19.822    -169.454     152.844
  C       18.826    -168.371     154.807
  N       18.553    -168.409     156.256
  C       18.623    -167.237     157.001
  O       18.876    -166.138     156.519
  N       18.416    -167.376     158.351
  C       18.106    -168.539     158.993
  O       18.160    -168.696     160.209
  C       17.778    -169.675     158.125
  C       18.036    -169.567     156.821
  O       13.498    -170.713     155.567
  O       14.575    -169.978     157.776
  H       20.701    -169.097     153.063
  H       12.993    -171.280     156.180
  H       18.604    -166.554     158.915
  H       17.393    -170.576     158.581
  H       17.838    -170.408     156.162
  H       19.630    -167.642     154.650
  H       19.756    -170.425     154.630
  H       17.389    -170.732     154.752
  H       16.889    -168.813     152.462
  H       14.973    -168.157     153.922
  H       14.971    -169.890     153.605
  P       18.299    -172.621     152.881
  C       19.619    -172.123     150.742
  O       19.687    -172.583     152.077
  O       17.378    -173.739     152.520
  O       18.738    -172.685     154.421
  H       18.045    -173.138     154.944
  H       20.636    -171.976     150.371
  H       19.081    -171.173     150.689
  H       19.119    -172.868     150.118
  H       12.711    -166.454     156.820
  H       14.411    -166.786     157.051
  H       13.226    -167.535     158.094

 3  4  5  6  7  8  9  10  11  12  13  23  28  29  30  31  32 0
 6-311+G(2d,p)
 ****
 33  34 0
 6-311+G(2d,p)
 ****
 1  2  14  15  16  17  18  19  20  21  22  24  25  26  27 0
 3-21G
 ****
 35  36  37  38  39  40  41  42  43  44  45 0
 3-21G
 ****


