%nproc=1
%NoSave
%Mem=1900MB
#P OB98/GEN NMR

erre ene a

0 1
  C      -79.676     -77.541     -87.615
  O      -79.216     -76.211     -87.732
  H      -79.769     -77.788     -86.554
  H      -78.963     -78.231     -88.075
  H      -80.654     -77.645     -88.090
  P      -78.953     -75.664     -89.217
  C      -81.478     -75.147     -89.534
  O      -80.332     -75.831     -90.019
  C      -82.346     -74.708     -90.709
  O      -83.532     -74.040     -90.221
  C      -81.673     -73.712     -91.641
  O      -80.761     -74.335     -92.527
  C      -82.879     -73.125     -92.355
  O      -83.291     -73.948     -93.457
  C      -83.950     -73.112     -91.242
  N      -84.171     -71.773     -90.708
  C      -85.467     -71.498     -90.283
  O      -86.384     -72.316     -90.345
  N      -85.688     -70.232     -89.816
  C      -84.769     -69.225     -89.770
  O      -85.051     -68.090     -89.408
  C      -83.412     -69.577     -90.219
  C      -83.181     -70.812     -90.670
  O      -78.004     -76.785     -89.853
  O      -78.347     -74.303     -89.291
  H      -77.081     -76.470     -89.867
  H      -83.538     -74.813     -93.074
  H      -86.624     -70.011     -89.514
  H      -82.656     -68.802     -90.190
  H      -82.192     -71.088     -91.025
  H      -84.907     -73.482     -91.631
  H      -82.663     -72.137     -92.762
  H      -81.185     -72.919     -91.061
  H      -82.661     -75.604     -91.262
  H      -81.165     -74.261     -88.972
  H      -82.034     -75.811     -88.865
  P      -79.604     -73.443     -93.188
  C      -77.753     -74.922     -92.053
  O      -78.301     -73.635     -92.272
  O      -80.112     -71.969     -92.839
  O      -79.394     -73.711     -94.639
  H      -80.549     -71.913     -91.972
  H      -76.894     -74.841     -91.420
  H      -77.467     -75.352     -92.990
  H      -78.484     -75.546     -91.583

 6  7  8  9  10  11  12  13  14  15  16  27  31  32  33  34  35 0
 6-311+G(2d,p)
 ****
 36  37 0
 6-311+G(2d,p)
 ****
 1  2  3  4  5  17  18  19  20  21  22  23  24  25 0
 3-21G
 ****
 26  28  29  30  38  39  40  41  42  43  44  45 0
 3-21G
 ****


