%nproc=1
%NoSave
%Mem=1900MB
#P OB98/GEN NMR

erre ene a

0 1
  C       55.352    -129.224     186.994
  O       55.706    -128.979     188.342
  P       56.230    -127.537     188.802
  C       58.702    -127.970     189.424
  O       57.793    -127.511     188.419
  C       60.042    -127.245     189.310
  O       60.786    -127.729     188.173
  C       59.920    -125.739     189.116
  O       59.607    -125.100     190.337
  C       61.303    -125.404     188.559
  O       62.267    -125.267     189.615
  C       61.610    -126.643     187.695
  N       61.408    -126.394     186.270
  C       62.572    -126.253     185.502
  O       63.682    -126.310     186.038
  N       62.441    -126.005     184.154
  C       61.267    -125.884     183.635
  N       61.204    -125.626     182.298
  C       60.016    -125.995     184.413
  C       60.158    -126.247     185.712
  O       55.910    -127.158     190.208
  O       55.586    -126.552     187.711
  H       63.094    -124.961     189.187
  H       54.615    -126.427     187.868
  H       59.054    -125.876     183.932
  H       59.297    -126.346     186.361
  H       62.654    -126.962     187.839
  H       61.305    -124.462     188.000
  H       59.160    -125.522     188.355
  H       60.623    -127.465     190.216
  H       62.086    -125.528     181.808
  H       58.858    -129.042     189.284
  H       60.339    -125.477     181.795
  H       58.256    -127.812     190.408
  P       59.222    -123.547     190.352
  C       61.576    -122.764     191.013
  O       60.560    -122.712     190.037
  O       58.448    -123.087     191.544
  O       58.357    -123.363     189.010
  H       57.574    -122.817     189.211
  H       62.524    -122.451     190.551
  H       61.690    -123.775     191.407
  H       61.337    -122.076     191.826
  H       55.029    -130.239     186.889
  H       56.201    -129.053     186.366
  H       54.558    -128.566     186.708

 3  4  5  6  7  8  9  10  11  12  13  23  27  28  29  30  32 0
 6-311+G(2d,p)
 ****
 34  35 0
 6-311+G(2d,p)
 ****
 1  2  14  15  16  17  18  19  20  21  22  24  25  26 0
 3-21G
 ****
 31  33  36  37  38  39  40  41  42  43  44  45  46 0
 3-21G
 ****


