%nproc=1
%NoSave
%Mem=1900MB
#P OB98/GEN NMR

erre ene a

0 1
  C       58.644     -50.832     308.142
  O       59.793     -50.375     307.419
  P       61.231     -50.913     307.896
  C       62.742     -50.409     309.981
  O       61.563     -50.107     309.244
  C       63.187     -49.188     310.781
  O       63.334     -48.033     309.917
  C       62.205     -48.756     311.863
  O       62.246     -49.633     312.980
  C       62.685     -47.337     312.144
  O       63.827     -47.358     313.017
  C       63.109     -46.859     310.736
  N       62.136     -45.963     310.119
  C       62.670     -44.860     309.455
  O       63.879     -44.625     309.399
  N       61.761     -44.021     308.869
  C       60.400     -44.151     308.907
  O       59.637     -43.371     308.353
  C       59.897     -45.309     309.668
  C       60.771     -46.149     310.230
  O       62.185     -50.264     306.797
  O       61.292     -52.399     307.995
  H       61.892     -49.381     306.503
  H       64.217     -46.463     312.979
  H       62.129     -43.223     308.374
  H       58.821     -45.434     309.740
  H       60.419     -47.007     310.794
  H       64.067     -46.334     310.788
  H       61.914     -46.719     312.623
  H       61.189     -48.731     311.452
  H       64.166     -49.410     311.228
  H       63.542     -50.700     309.297
  H       62.539     -51.260     310.638
  P       61.116     -50.777     313.047
  C       58.499     -50.737     313.124
  O       59.711     -50.017     313.201
  O       61.388     -51.394     314.505
  O       61.195     -51.765     311.932
  H       61.540     -50.712     315.185
  H       57.710     -50.142     313.591
  H       58.566     -51.696     313.640
  H       58.245     -50.902     312.072
  H       57.761     -50.398     307.720
  H       58.729     -50.541     309.168
  H       58.583     -51.898     308.078

 3  4  5  6  7  8  9  10  11  12  13  24  28  29  30  31  32 0
 6-311+G(2d,p)
 ****
 33  34 0
 6-311+G(2d,p)
 ****
 1  2  14  15  16  17  18  19  20  21  22  23  25  26  27 0
 3-21G
 ****
 35  36  37  38  39  40  41  42  43  44  45 0
 3-21G
 ****


