%nproc=1
%NoSave
%Mem=1900MB
#P OB98/GEN NMR

erre ene a

0 1
  C      513.938     302.495     384.110
  O      513.933     301.967     382.805
  H      513.127     302.034     384.680
  H      513.767     303.579     384.080
  H      514.886     302.287     384.616
  P      515.138     302.341     381.813
  C      514.043     303.292     379.666
  O      514.586     302.153     380.320
  C      512.711     302.949     378.978
  O      511.637     303.047     379.974
  C      512.337     303.890     377.815
  O      511.564     303.119     376.887
  C      511.475     304.911     378.541
  O      510.775     305.750     377.657
  C      510.663     303.962     379.435
  N      509.918     304.607     380.502
  C      508.596     304.965     380.247
  O      508.012     304.778     379.179
  N      507.925     305.567     381.281
  C      508.439     305.838     382.521
  O      507.776     306.352     383.425
  C      509.835     305.442     382.732
  C      510.503     304.849     381.737
  O      516.448     301.680     382.097
  O      515.247     303.939     381.941
  H      515.998     304.168     382.520
  H      510.119     305.222     377.172
  H      506.966     305.841     381.118
  H      510.272     305.641     383.704
  H      511.535     304.533     381.872
  H      509.978     303.369     378.815
  H      512.112     305.569     379.148
  H      513.216     304.310     377.311
  H      512.745     301.903     378.655
  H      514.768     303.637     378.919
  H      513.885     304.087     380.410
  P      511.945     302.970     375.329
  C      509.639     303.723     374.436
  O      510.587     302.674     374.511
  O      513.033     301.972     375.064
  O      512.379     304.440     374.848
  H      512.993     304.366     374.097
  H      508.791     303.398     373.870
  H      510.083     304.571     373.958
  H      509.327     303.993     375.423

 6  7  8  9  10  11  12  13  14  15  16  27  31  32  33  34  35 0
 6-311+G(2d,p)
 ****
 36  37 0
 6-311+G(2d,p)
 ****
 1  2  3  4  5  17  18  19  20  21  22  23  24  25 0
 3-21G
 ****
 26  28  29  30  38  39  40  41  42  43  44  45 0
 3-21G
 ****


