%nproc=1
%NoSave
%Mem=1900MB
#P OB98/GEN NMR

erre ene a

0 1
  C     -520.306     295.843    -899.260
  O     -520.766     296.170    -897.970
  H     -519.471     296.503    -899.520
  H     -521.102     295.975    -900.000
  H     -519.960     294.800    -899.280
  P     -522.018     295.339    -897.410
  C     -520.588     294.397    -895.500
  O     -521.358     294.083    -896.640
  C     -519.312     293.547    -895.460
  O     -518.509     293.890    -896.630
  C     -518.443     293.775    -894.230
  O     -517.876     292.545    -893.790
  C     -517.344     294.705    -894.730
  O     -516.153     294.601    -893.940
  C     -517.197     294.243    -896.190
  N     -512.938     296.819    -897.330
  C     -513.163     295.736    -896.570
  N     -514.322     295.099    -896.320
  C     -515.339     295.673    -897.020
  C     -515.267     296.787    -897.840
  C     -514.002     297.375    -897.970
  N     -513.765     298.505    -898.740
  N     -516.520     297.076    -898.340
  C     -517.318     296.179    -897.830
  N     -516.656     295.308    -897.020
  O     -523.066     294.996    -898.420
  O     -522.513     296.262    -896.200
  H     -516.346     294.917    -893.050
  H     -521.764     296.585    -895.670
  H     -512.281     295.317    -896.060
  H     -518.404     296.121    -898.010
  H     -516.520     293.382    -896.280
  H     -517.697     295.753    -894.680
  H     -519.009     294.235    -893.390
  H     -519.583     292.482    -895.560
  H     -521.180     294.199    -894.580
  H     -512.828     298.854    -898.810
  H     -514.538     298.915    -899.240
  H     -520.345     295.457    -895.510
  P     -518.785     291.527    -892.970
  C     -518.017     289.256    -893.940
  O     -519.067     290.223    -893.870
  O     -519.980     292.118    -892.280
  O     -517.752     290.968    -891.870
  H     -518.239     290.832    -891.010
  H     -518.323     288.442    -894.563
  H     -517.802     288.891    -892.957
  H     -517.140     289.711    -894.352

 6  7  8  9  10  11  12  13  14  15  25  28  32  33  34  35 0
 6-311+G(2d,p)
 ****
 36  39  40 0
 6-311+G(2d,p)
 ****
 1  2  3  4  5  16  17  18  19  20  21  22  23  24 0
 3-21G
 ****
 26  27  29  30  31  37  38  41  42  43  44  45  46  47 0
 3-21G
 ****
 48 0
 3-21G
 ****


