%nproc=1
%NoSave
%Mem=1900MB
#P OB98/GEN NMR

erre ene a

0 1
  C       33.004    -260.197    -201.989
  O       32.462    -260.693    -203.199
  H       33.435    -259.212    -202.176
  H       33.793    -260.865    -201.635
  H       32.224    -260.106    -201.230
  P       31.695    -262.101    -203.125
  C       29.361    -262.886    -202.314
  O       30.281    -261.810    -202.415
  C       27.929    -262.363    -202.195
  O       27.856    -261.441    -201.068
  C       27.427    -261.610    -203.439
  O       26.027    -261.882    -203.589
  C       27.584    -260.149    -203.037
  O       26.753    -259.278    -203.799
  C       27.223    -260.238    -201.553
  N       26.455    -255.297    -200.978
  C       25.805    -256.220    -201.777
  N       24.794    -255.756    -202.545
  N       26.119    -257.488    -201.822
  C       27.128    -257.819    -200.980
  C       27.854    -257.001    -200.143
  C       27.513    -255.593    -200.126
  O       28.064    -254.725    -199.453
  N       28.817    -257.714    -199.470
  C       28.669    -258.957    -199.898
  N       27.660    -259.071    -200.814
  O       32.524    -262.894    -202.009
  O       31.620    -262.855    -204.411
  H       27.130    -258.377    -203.741
  H       33.214    -263.444    -202.428
  H       26.180    -254.330    -200.994
  H       29.268    -259.804    -199.582
  H       26.141    -260.331    -201.393
  H       28.626    -259.831    -203.168
  H       24.465    -254.805    -202.527
  H       27.955    -261.860    -204.365
  H       24.276    -256.427    -203.103
  H       27.269    -263.203    -201.956
  H       29.601    -263.478    -201.421
  H       29.452    -263.523    -203.199
  P       25.545    -263.407    -203.511
  C       25.306    -264.973    -201.447
  O       25.045    -263.697    -202.013
  O       26.925    -264.222    -203.588
  O       24.604    -263.811    -204.600
  H       26.769    -265.100    -203.979
  H       24.914    -265.009    -200.452
  H       26.362    -265.142    -201.420
  H       24.839    -265.730    -202.042

 6  7  8  9  10  11  12  13  14  15  26  29  33  34 0
 6-311+G(2d,p)
 ****
 36  38  39  40  41 0
 6-311+G(2d,p)
 ****
 1  2  3  4  5  16  17  18  19  20  21  22  23  24  25 0
 3-21G
 ****
 27  28  30  31  32  35  37  42  43  44  45  46  47 0
 3-21G
 ****
 48  49 0
 3-21G
 ****


