%nproc=1
%NoSave
%Mem=1900MB
#P OB98/GEN NMR

erre ene a

0 1
  C     -549.250    -894.705    1020.721
  O     -548.233    -895.593    1020.295
  P     -548.321    -897.170    1020.578
  C     -548.605    -897.898    1018.120
  O     -547.741    -897.852    1019.247
  C     -547.996    -898.725    1016.999
  O     -547.026    -897.909    1016.301
  C     -547.236    -899.986    1017.437
  O     -548.071    -901.142    1017.638
  C     -546.344    -900.213    1016.233
  O     -547.113    -900.844    1015.178
  C     -545.972    -898.787    1015.843
  N     -540.880    -899.130    1015.393
  C     -541.888    -899.646    1014.645
  N     -543.221    -899.512    1014.830
  C     -543.487    -898.757    1015.902
  C     -542.543    -898.159    1016.748
  C     -541.190    -898.368    1016.461
  N     -540.170    -897.835    1017.214
  N     -543.196    -897.447    1017.759
  C     -544.472    -897.598    1017.508
  N     -544.700    -898.373    1016.377
  O     -549.667    -897.636    1021.022
  O     -547.184    -897.433    1021.659
  H     -546.496    -901.028    1014.441
  H     -547.326    -898.304    1022.080
  H     -541.602    -900.217    1013.781
  H     -545.280    -897.191    1018.094
  H     -545.913    -898.642    1014.723
  H     -545.523    -900.887    1016.440
  H     -546.609    -899.793    1018.316
  H     -548.806    -898.981    1016.270
  H     -548.764    -896.873    1017.763
  H     -539.198    -897.929    1016.841
  H     -540.388    -897.144    1017.911
  H     -549.591    -898.289    1018.427
  P     -547.646    -902.132    1018.822
  C     -549.204    -901.163    1020.704
  O     -548.921    -902.206    1019.797
  O     -546.369    -901.792    1019.492
  O     -547.662    -903.561    1018.098
  H     -548.540    -903.881    1017.794
  H     -550.169    -901.333    1021.141
  H     -549.210    -900.195    1020.202
  H     -548.442    -901.159    1021.507
  H     -548.995    -893.707    1020.433
  H     -549.345    -894.756    1021.786
  H     -550.178    -894.982    1020.267

 3  4  5  6  7  8  9  10  11  12  22  25  29  30  31  32 0
 6-311+G(2d,p)
 ****
 33  36  37 0
 6-311+G(2d,p)
 ****
 1  2  13  14  15  16  17  18  19  20  21  23  24  26 0
 3-21G
 ****
 27  28  34  35  38  39  40  41  42  43  44  45  46  47  48 0
 3-21G
 ****


