%nproc=1
%NoSave
%Mem=1900MB
#P OB98/GEN NMR

erre ene a

0 1
  C       10.809      63.439    -316.859
  O       11.043      62.351    -315.960
  P       11.589      60.994    -316.627
  C        9.218      60.004    -316.998
  O       10.434      60.431    -317.598
  C        8.549      58.909    -317.837
  O        7.969      59.470    -319.052
  C        9.512      57.790    -318.268
  O        8.756      56.573    -318.268
  C        9.865      58.208    -319.689
  O       10.449      57.165    -320.456
  C        8.497      58.704    -320.159
  N       10.012      58.776    -325.035
  C       10.107      57.828    -324.070
  N        9.680      57.886    -322.790
  C        9.097      59.073    -322.547
  C        8.927      60.134    -323.420
  C        9.416      59.950    -324.728
  N        9.341      60.915    -325.708
  N        8.295      61.198    -322.787
  C        8.166      60.801    -321.532
  N        8.557      59.501    -321.361
  O       11.605      59.957    -315.409
  O       12.929      61.141    -317.275
  H       11.227      56.799    -319.986
  H       12.507      59.873    -315.047
  H       10.596      56.902    -324.368
  H        7.794      61.408    -320.718
  H        7.803      57.877    -320.350
  H       10.585      59.032    -319.661
  H       10.380      57.677    -317.614
  H        7.723      58.482    -317.250
  H        8.530      60.846    -316.902
  H        9.722      60.691    -326.616
  H        8.917      61.811    -325.516
  H        9.424      59.656    -315.978
  P        8.945      55.547    -317.044
  C       10.423      53.915    -318.368
  O       10.373      54.856    -317.313
  O        7.943      54.374    -317.488
  O        8.682      56.091    -315.678
  H        8.103      54.105    -318.412
  H       11.456      53.584    -318.490
  H       10.078      54.368    -319.298
  H        9.800      53.042    -318.122
  H       10.450      64.284    -316.310
  H       10.079      63.150    -317.586
  H       11.723      63.696    -317.353

 3  4  5  6  7  8  9  10  11  12  22  25  29  30  31  32 0
 6-311+G(2d,p)
 ****
 33  36  37 0
 6-311+G(2d,p)
 ****
 1  2  13  14  15  16  17  18  19  20  21  23  24  26 0
 3-21G
 ****
 27  28  34  35  38  39  40  41  42  43  44  45  46  47  48 0
 3-21G
 ****


