%nproc=1
%NoSave
%Mem=1900MB
#P OB98/GEN NMR

erre ene a

0 1
  C     -890.030    -973.691    -899.073
  O     -890.080    -972.738    -897.983
  P     -891.260    -971.651    -897.983
  C     -892.720    -973.138    -896.483
  O     -892.660    -972.367    -897.653
  C     -894.150    -973.115    -895.843
  O     -894.440    -971.780    -895.363
  C     -895.240    -973.490    -896.823
  O     -896.280    -974.200    -896.113
  C     -895.790    -972.131    -897.303
  O     -897.100    -972.248    -897.873
  C     -895.670    -971.372    -895.913
  N     -898.670    -967.234    -896.113
  C     -898.970    -968.561    -895.933
  N     -898.090    -969.602    -895.893
  C     -896.820    -969.167    -896.123
  C     -896.380    -967.865    -896.353
  C     -897.380    -966.863    -896.383
  N     -897.140    -965.544    -896.613
  N     -895.030    -967.827    -896.553
  C     -894.670    -969.092    -896.443
  N     -895.670    -969.936    -896.113
  O     -891.410    -971.238    -899.593
  O     -890.960    -970.428    -897.203
  H     -897.720    -972.484    -897.153
  H     -891.000    -970.395    -899.733
  H     -900.000    -968.795    -895.733
  H     -893.590    -969.424    -896.583
  H     -896.510    -971.594    -895.263
  H     -895.130    -971.680    -898.053
  H     -894.930    -974.116    -897.723
  H     -894.130    -973.853    -894.983
  H     -891.970    -972.755    -895.763
  H     -897.910    -964.877    -896.633
  H     -896.190    -965.236    -896.803
  H     -892.400    -974.178    -896.703
  P     -896.120    -975.795    -895.923
  C     -895.250    -975.440    -893.493
  O     -894.960    -975.968    -894.773
  O     -895.290    -976.211    -897.253
  O     -897.360    -976.556    -895.753
  H     -895.530    -977.165    -897.463
  H     -894.890    -976.129    -892.743
  H     -896.270    -975.230    -893.323
  H     -894.670    -974.476    -893.353
  H     -889.195    -974.346    -898.936
  H     -889.924    -973.167    -900.000
  H     -890.934    -974.263    -899.088

 3  4  5  6  7  8  9  10  11  12  22  25  29  30  31  32 0
 6-311+G(2d,p)
 ****
 33  36  37 0
 6-311+G(2d,p)
 ****
 1  2  13  14  15  16  17  18  19  20  21  23  24  26 0
 3-21G
 ****
 27  28  34  35  38  39  40  41  42  43  44  45  46  47  48 0
 3-21G
 ****


