%nproc=1
%NoSave
%Mem=1900MB
#P OB98/GEN NMR

erre ene a

0 1
  C     -653.837    -895.050     -18.126
  O     -655.048    -895.600     -17.651
  H     -653.086    -895.140     -17.346
  H     -653.974    -894.000     -18.385
  H     -653.494    -895.610     -19.009
  P     -656.289    -895.610     -18.682
  C     -657.832    -894.020     -17.298
  O     -657.597    -895.330     -17.793
  C     -659.176    -893.980     -16.544
  O     -660.252    -894.210     -17.510
  C     -659.303    -895.060     -15.459
  O     -660.162    -894.560     -14.418
  C     -660.040    -896.170     -16.204
  O     -660.590    -897.090     -15.305
  C     -661.021    -895.320     -17.021
  N     -664.227    -899.110     -18.209
  C     -663.886    -898.550     -17.023
  N     -663.028    -897.540     -16.786
  C     -662.515    -897.080     -17.949
  C     -662.761    -897.540     -19.229
  C     -663.664    -898.630     -19.334
  N     -663.992    -899.220     -20.531
  N     -662.024    -896.830     -20.157
  C     -661.354    -895.940     -19.442
  N     -661.619    -896.050     -18.110
  O     -656.410    -897.150     -19.084
  O     -656.138    -894.730     -19.879
  H     -659.912    -897.430     -14.679
  H     -655.894    -897.330     -19.891
  H     -664.377    -898.980     -16.149
  H     -660.654    -895.220     -19.841
  H     -661.837    -894.930     -16.398
  H     -659.347    -896.720     -16.857
  H     -658.343    -895.370     -15.031
  H     -659.320    -892.970     -16.135
  H     -657.851    -893.330     -18.142
  H     -657.026    -893.750     -16.617
  H     -664.624    -900.000     -20.526
  H     -663.550    -898.880     -21.385
  P     -659.743    -894.810     -12.885
  C     -661.443    -896.460     -11.764
  O     -661.053    -895.110     -11.993
  O     -659.348    -893.330     -12.398
  O     -658.608    -895.760     -12.658
  H     -658.493    -893.370     -11.891
  H     -662.325    -896.479     -11.158
  H     -660.654    -896.979     -11.261
  H     -661.643    -896.937     -12.701

 6  7  8  9  10  11  12  13  14  15  25  28  32  33  34  35 0
 6-311+G(2d,p)
 ****
 36  37  40 0
 6-311+G(2d,p)
 ****
 1  2  3  4  5  16  17  18  19  20  21  22  23  24 0
 3-21G
 ****
 26  27  29  30  31  38  39 41  42  43  44  45  46  47  48 0
 3-21G
 ****


