%nproc=1
%NoSave
%Mem=1900MB
#P OB98/GEN NMR

erre ene a

0 1
  C     -131.994    -303.911     179.088
  O     -133.279    -304.500     179.031
  H     -132.058    -302.893     178.690
  H     -131.289    -304.483     178.479
  H     -131.646    -303.864     180.123
  P     -133.403    -305.998     179.597
  C     -133.708    -306.983     177.222
  O     -134.291    -306.761     178.501
  C     -133.909    -308.432     176.788
  O     -133.223    -308.689     175.549
  C     -133.379    -309.464     177.777
  O     -134.301    -309.670     178.835
  C     -133.269    -310.688     176.880
  O     -134.570    -311.290     176.718
  C     -132.804    -310.083     175.541
  N     -128.786    -313.135     174.595
  C     -130.061    -313.411     174.949
  N     -131.061    -312.547     175.227
  C     -130.644    -311.279     175.106
  C     -129.377    -310.843     174.752
  C     -128.420    -311.836     174.477
  N     -127.125    -311.551     174.104
  N     -129.319    -309.464     174.734
  C     -130.545    -309.076     175.020
  N     -131.376    -310.135     175.290
  O     -133.850    -306.119     181.012
  O     -131.933    -306.558     179.297
  H     -134.486    -311.989     176.042
  H     -131.607    -306.226     178.443
  H     -130.310    -314.466     175.020
  H     -130.884    -308.046     175.028
  H     -133.289    -310.565     174.685
  H     -132.614    -311.454     177.299
  H     -132.381    -309.197     178.139
  H     -134.982    -308.581     176.604
  H     -132.636    -306.744     177.247
  H     -126.465    -312.312     174.095
  H     -126.822    -310.588     174.139
  H     -134.196    -306.305     176.516
  P     -133.783    -310.026     180.311
  C     -133.704    -312.593     180.205
  O     -134.412    -311.455     180.683
  O     -134.009    -308.966     181.333
  O     -132.228    -310.350     180.126
  H     -131.717    -310.005     180.883
  H     -134.212    -313.484     180.511
  H     -132.713    -312.591     180.608
  H     -133.655    -312.560     179.137

 6  7  8  9  10  11  12  13  14  15  25  28  32  33  34  35 0
 6-311+G(2d,p)
 ****
 36  39  40 0
 6-311+G(2d,p)
 ****
 1  2  3  4  5  16  17  18  19  20  21  22  23  24 0
 3-21G
 ****
 26  27  29  30  31  37  38  41  42  43  44  45  46  47 0
 3-21G
 ****
 48 0
 3-21G
 ****


