%nproc=1
%NoSave
%Mem=1900MB
#P OB98/GEN NMR

erre ene a

0 1
  C      477.015    -131.001     119.055
  O      477.834    -130.794     117.921
  H      477.560    -131.620     119.771
  H      476.103    -131.525     118.758
  H      476.762    -130.053     119.536
  P      477.406    -129.688     116.846
  C      476.964    -127.148     116.963
  O      477.627    -128.261     117.550
  C      477.541    -125.833     117.486
  O      477.416    -125.810     118.938
  C      479.026    -125.619     117.150
  O      479.239    -124.208     117.018
  C      479.702    -126.140     118.405
  O      481.037    -125.691     118.500
  C      478.738    -125.630     119.481
  N      478.913    -126.322     120.759
  C      479.993    -125.926     121.537
  O      480.803    -125.070     121.183
  N      480.148    -126.583     122.726
  C      479.377    -127.618     123.171
  O      479.584    -128.193     124.234
  C      478.271    -128.024     122.287
  C      478.091    -127.364     121.139
  O      476.063    -129.876     116.223
  O      478.579    -129.721     115.756
  H      481.434    -125.981     119.349
  H      478.227    -129.479     114.879
  H      480.924    -126.306     123.308
  H      477.648    -128.847     122.606
  H      477.285    -127.634     120.466
  H      478.887    -124.557     119.657
  H      479.725    -127.236     118.405
  H      479.340    -126.144     116.244
  H      476.929    -125.005     117.104
  H      475.900    -127.217     117.212
  H      477.074    -127.195     115.872
  P      479.090    -123.453     115.610
  C      477.133    -123.102     113.971
  O      477.534    -123.168     115.340
  O      479.797    -124.126     114.479
  O      479.695    -121.992     115.866
  H      480.051    -121.632     115.031
  H      476.082    -122.909     113.916
  H      477.350    -124.033     113.490
  H      477.666    -122.315     113.481

 6  7  8  9  10  11  12  13  14  15  16  26  31  32  33  34  35 0
 6-311+G(2d,p)
 ****
 36  37 0
 6-311+G(2d,p)
 ****
 1  2  3  4  5  17  18  19  20  21  22  23  24  25 0
 3-21G
 ****
 27  28  29  30  38  39  40  41  42  43  44  45 0
 3-21G
 ****


