%nproc=1
%NoSave
%Mem=1900MB
#P OB98/GEN NMR

erre ene a

0 1
  C      134.772    -184.776     -99.452
  O      135.766    -184.205     -98.622
  P      136.813    -185.217     -97.936
  C      139.346    -185.075     -97.315
  O      138.189    -184.406     -97.787
  C      140.573    -184.177     -97.505
  O      140.851    -184.003     -98.914
  C      140.419    -182.777     -96.924
  O      140.677    -182.788     -95.528
  C      141.447    -181.998     -97.733
  O      142.772    -182.187     -97.201
  C      141.313    -182.643     -99.123
  N      140.949    -179.023    -102.636
  C      142.006    -179.353    -101.810
  N      143.146    -178.646    -101.975
  N      141.954    -180.296    -100.903
  C      140.749    -180.910    -100.842
  C      139.622    -180.659    -101.593
  C      139.713    -179.651    -102.625
  O      138.838    -179.385    -103.448
  N      138.581    -181.471    -101.224
  C      139.086    -182.229    -100.271
  N      140.404    -181.946    -100.016
  O      137.105    -186.273     -99.096
  O      136.335    -185.861     -96.674
  H      142.779    -181.938     -96.256
  H      136.574    -187.081     -98.973
  H      141.055    -178.299    -103.327
  H      138.549    -183.010     -99.758
  H      142.279    -182.703     -99.641
  H      141.256    -180.922     -97.716
  H      143.253    -177.891    -102.637
  H      139.414    -182.389     -97.130
  H      143.930    -178.874    -101.376
  H      141.432    -184.686     -97.059
  H      139.484    -185.997     -97.886
  H      139.214    -185.327     -96.257
  P      140.066    -181.588     -94.656
  C      139.238    -181.300     -92.209
  O      139.801    -182.162     -93.182
  O      138.598    -181.398     -95.264
  O      140.848    -180.321     -94.716
  H      138.358    -180.451     -95.255
  H      138.656    -181.904     -91.508
  H      138.587    -180.549     -92.663
  H      140.044    -180.802     -91.667
  H      134.146    -184.002     -99.843
  H      134.180    -185.460     -98.880
  H      135.239    -185.299    -100.260

 3  4  5  6  7  8  9  10  11  12  23  26  30  31 0
 6-311+G(2d,p)
 ****
 33  35  36  37  38 0
 6-311+G(2d,p)
 ****
 1  2  13  14  15  16  17  18  19  20  21  22  24  25 0
 3-21G
 ****
 27  28  29  32  34  39  40  41  42  43  44  45  46  47  48  49 0
 3-21G
 ****


