%nproc=1
%NoSave
%Mem=1900MB
#P OB98/GEN NMR

erre ene a

0 1
  C       -3.997     570.914    1921.678
  O       -4.951     571.304    1920.699
  P       -4.733     571.064    1919.120
  C       -6.453     569.152    1918.717
  O       -5.055     569.510    1918.764
  C       -6.610     567.609    1918.662
  O       -6.231     567.006    1919.932
  C       -8.032     567.131    1918.387
  O       -8.373     567.306    1917.027
  C       -7.967     565.701    1918.886
  O       -7.396     564.838    1917.844
  C       -7.003     565.797    1920.089
  N       -7.743     565.780    1921.361
  C       -8.123     564.513    1921.827
  O       -7.919     563.502    1921.155
  N       -8.768     564.461    1923.066
  C       -9.050     565.531    1923.701
  N       -9.676     565.392    1924.906
  C       -8.717     566.888    1923.221
  C       -8.087     566.929    1922.043
  O       -3.411     571.549    1918.603
  O       -5.944     571.846    1918.401
  H       -6.407     564.961    1917.914
  H       -5.640     572.171    1917.520
  H       -8.995     567.782    1923.748
  H       -7.788     567.886    1921.608
  H       -6.291     564.976    1920.080
  H       -8.955     565.281    1919.124
  H       -8.752     567.697    1919.027
  H       -5.925     567.216    1917.892
  H       -9.873     564.458    1925.221
  H       -6.882     569.586    1917.818
  H       -9.930     566.199    1925.479
  H       -6.976     569.558    1919.623
  P       -8.923     568.742    1916.490
  C       -6.614     569.413    1915.527
  O       -7.661     569.740    1916.410
  O      -10.127     569.289    1917.217
  O       -9.235     568.464    1914.938
  H       -9.976     569.028    1914.660
  H       -6.047     570.318    1915.287
  H       -7.024     568.960    1914.598
  H       -5.950     568.687    1916.000
  H       -4.358     571.174    1922.651
  H       -3.071     571.418    1921.495
  H       -3.844     569.856    1921.625

 3  4  5  6  7  8  9  10  11  12  13  23  27  28  29  30  32 0
 6-311+G(2d,p)
 ****
 34  35 0
 6-311+G(2d,p)
 ****
 1  2  14  15  16  17  18  19  20  21  22  24  25  26 0
 3-21G
 ****
 31  33  36  37  38  39  40  41  42  43  44  45  46 0
 3-21G
 ****


