%nproc=1
%NoSave
%Mem=1900MB
#P OB98/GEN NMR

erre ene a

0 1
  C     -454.174    -449.799    -612.925
  O     -454.273    -450.811    -611.940
  H     -453.232    -449.266    -612.784
  H     -455.000    -449.088    -612.818
  H     -454.190    -450.239    -613.926
  P     -455.616    -451.694    -611.962
  C     -454.266    -453.899    -612.174
  O     -455.202    -453.145    -611.411
  C     -454.089    -455.290    -611.564
  O     -455.377    -455.875    -611.252
  C     -453.366    -456.278    -612.465
  O     -451.957    -456.123    -612.376
  C     -453.847    -457.610    -611.899
  O     -453.113    -457.973    -610.716
  C     -455.309    -457.296    -611.555
  N     -457.677    -461.088    -613.920
  C     -456.827    -461.107    -612.834
  N     -456.516    -462.317    -612.345
  N     -456.305    -460.036    -612.293
  C     -456.684    -458.890    -612.919
  C     -457.533    -458.732    -613.987
  C     -458.114    -459.927    -614.556
  O     -458.925    -459.976    -615.480
  N     -457.679    -457.412    -614.321
  C     -456.886    -456.778    -613.479
  N     -456.253    -457.632    -612.610
  O     -455.865    -451.952    -613.523
  O     -456.805    -451.072    -611.310
  H     -452.165    -458.034    -610.936
  H     -456.826    -452.032    -613.681
  H     -458.052    -461.945    -614.283
  H     -456.752    -455.700    -613.455
  H     -455.645    -457.829    -610.660
  H     -453.722    -458.421    -612.614
  H     -456.593    -463.158    -612.895
  H     -453.708    -456.182    -613.515
  H     -455.870    -462.347    -611.555
  H     -453.555    -455.172    -610.611
  H     -453.297    -453.379    -612.164
  H     -454.618    -453.978    -613.200
  P     -451.156    -455.746    -613.708
  C     -449.367    -454.696    -612.147
  O     -449.628    -455.514    -613.275
  O     -451.675    -454.274    -614.045
  O     -451.367    -456.691    -614.855
  H     -451.459    -454.046    -614.975
  H     -448.311    -454.637    -611.986
  H     -449.837    -455.119    -611.284
  H     -449.756    -453.715    -612.320

 6  7  8  9  10  11  12  13  14  15  26  29  33  34 0
 6-311+G(2d,p)
 ****
 36  38  39  40  41 0
 6-311+G(2d,p)
 ****
 1  2  3  4  5  16  17  18  19  20  21  22  23  24  25 0
 3-21G
 ****
 27  28  30  31  32  35  37  42  43  44  45  46  47 0
 3-21G
 ****
 48  49 0
 3-21G
 ****


