%nproc=1
%NoSave
%Mem=1900MB
#P OB98/GEN NMR

erre ene a

0 1
  C     -465.795    -396.653    -258.862
  O     -467.051    -397.269    -259.065
  P     -467.448    -398.616    -258.294
  C     -469.991    -398.578    -258.005
  O     -468.909    -399.059    -258.783
  C     -471.289    -399.327    -258.328
  O     -471.755    -398.947    -259.651
  C     -471.146    -400.859    -258.303
  O     -472.353    -401.389    -257.742
  C     -471.042    -401.214    -259.777
  O     -471.402    -402.566    -260.037
  C     -471.970    -400.159    -260.392
  N     -471.726    -399.967    -261.814
  C     -472.310    -400.887    -262.686
  O     -472.888    -401.882    -262.244
  N     -472.214    -400.660    -264.046
  C     -471.446    -399.712    -264.471
  N     -471.434    -399.473    -265.818
  C     -470.617    -398.876    -263.581
  C     -470.836    -399.024    -262.277
  O     -467.279    -398.567    -256.812
  O     -466.495    -399.735    -258.940
  H     -466.013    -400.197    -258.226
  H     -471.492    -402.685    -261.003
  H     -469.892    -398.185    -263.994
  H     -470.294    -398.441    -261.545
  H     -473.021    -400.446    -260.252
  H     -470.012    -401.065    -260.116
  H     -470.293    -401.201    -257.712
  H     -472.051    -399.016    -257.607
  H     -472.044    -400.042    -266.394
  H     -470.132    -397.517    -258.234
  H     -471.126    -398.582    -266.205
  H     -469.753    -398.660    -256.941
  P     -472.237    -402.402    -256.502
  C     -473.913    -401.239    -254.893
  O     -473.628    -402.365    -255.706
  O     -471.268    -401.583    -255.513
  O     -471.651    -403.746    -256.786
  H     -470.807    -402.217    -254.928
  H     -474.866    -401.418    -254.376
  H     -474.010    -400.344    -255.508
  H     -473.132    -401.096    -254.142
  H     -465.728    -395.772    -259.466
  H     -465.016    -397.333    -259.136
  H     -465.691    -396.387    -257.831

 3  4  5  6  7  8  9  10  11  12  13  24  27  28  29  30  32 0
 6-311+G(2d,p)
 ****
 34  35 0
 6-311+G(2d,p)
 ****
 1  2  14  15  16  17  18  19  20  21  22  23  25  26 0
 3-21G
 ****
 31  33  36  37  38  39  40  41  42  43  44  45  46 0
 3-21G
 ****


