%nproc=1
%NoSave
%Mem=1900MB
#P OB98/GEN NMR

erre ene a

0 1
  C     -321.991     259.634    -172.345
  O     -321.461     259.048    -173.529
  P     -320.273     257.987    -173.366
  C     -321.152     257.304    -175.706
  O     -320.043     257.368    -174.828
  C     -320.779     256.599    -177.007
  O     -320.191     255.315    -176.723
  C     -321.944     256.327    -177.941
  O     -322.288     257.452    -178.725
  C     -321.351     255.233    -178.827
  O     -320.495     255.821    -179.815
  C     -320.530     254.425    -177.821
  N     -321.192     249.380    -178.332
  C     -320.472     250.266    -179.048
  N     -320.357     251.593    -178.859
  C     -321.110     251.998    -177.818
  C     -321.924     251.205    -177.024
  C     -321.940     249.839    -177.294
  N     -322.650     248.928    -176.542
  N     -322.537     251.981    -176.058
  C     -322.109     253.204    -176.263
  N     -321.234     253.266    -177.315
  O     -320.962     256.791    -172.560
  O     -319.055     258.506    -172.669
  H     -320.032     255.090    -180.270
  H     -320.283     256.267    -172.090
  H     -319.916     249.858    -179.883
  H     -322.394     254.067    -175.677
  H     -319.578     254.073    -178.255
  H     -322.110     254.663    -179.363
  H     -322.812     255.921    -177.395
  H     -320.014     257.213    -177.520
  H     -321.501     258.316    -175.929
  H     -322.469     247.945    -176.692
  H     -323.044     249.234    -175.660
  H     -321.975     256.766    -175.203
  P     -323.863     257.757    -178.901
  C     -323.811     260.263    -178.185
  O     -323.951     259.324    -179.236
  O     -324.419     257.647    -177.406
  O     -324.562     256.834    -179.836
  H     -325.369     257.414    -177.413
  H     -323.581     261.234    -178.611
  H     -323.002     259.978    -177.506
  H     -324.757     260.326    -177.622
  H     -322.772     260.318    -172.604
  H     -321.215     260.159    -171.828
  H     -322.385     258.866    -171.712

 3  4  5  6  7  8  9  10  11  12  22  25  29  30  31  32 0
 6-311+G(2d,p)
 ****
 33  36  37 0
 6-311+G(2d,p)
 ****
 1  2  13  14  15  16  17  18  19  20  21  23  24  26 0
 3-21G
 ****
 27  28  34  35  38  39  40  41  42  43  44  45  46  47  48 0
 3-21G
 ****


