%nproc=1
%NoSave
%Mem=1900MB
#P OB98/GEN NMR

erre ene a

0 1
  C     -193.649    -619.965     258.665
  O     -194.014    -619.030     259.657
  H     -194.103    -620.930     258.909
  H     -192.562    -620.086     258.643
  H     -194.008    -619.653     257.679
  P     -193.634    -617.487     259.440
  C     -195.793    -616.732     258.242
  O     -195.012    -616.668     259.427
  C     -197.190    -616.145     258.481
  O     -197.943    -617.071     259.324
  C     -197.190    -614.780     259.197
  O     -198.353    -614.069     258.741
  C     -197.343    -615.216     260.643
  O     -197.642    -614.146     261.504
  C     -198.400    -616.312     260.465
  N     -198.597    -617.186     261.617
  C     -199.109    -616.617     262.778
  O     -199.412    -615.431     262.906
  N     -199.269    -617.475     263.835
  C     -198.989    -618.810     263.844
  O     -199.182    -619.532     264.813
  C     -198.440    -619.348     262.589
  C     -198.279    -618.528     261.551
  O     -192.718    -617.198     258.301
  O     -192.985    -617.061     260.843
  H     -192.012    -617.040     260.760
  H     -196.833    -613.605     261.637
  H     -199.646    -617.081     264.691
  H     -198.199    -620.401     262.564
  H     -197.888    -618.901     260.609
  H     -199.361    -615.865     260.189
  H     -196.402    -615.634     261.005
  H     -196.295    -614.187     258.994
  H     -197.718    -616.090     257.521
  H     -195.878    -617.779     257.942
  H     -195.285    -616.174     257.448
  P     -198.460    -612.465     258.733
  C     -197.592    -612.195     256.311
  O     -198.674    -611.985     257.218
  O     -197.329    -611.781     259.429
  O     -199.858    -612.137     259.447
  H     -199.819    -611.248     259.843
  H     -197.864    -611.832     255.342
  H     -197.374    -613.241     256.252
  H     -196.728    -611.669     256.659

 6  7  8  9  10  11  12  13  14  15  16  27  31  32  33  34  35 0
 6-311+G(2d,p)
 ****
 36  37 0
 6-311+G(2d,p)
 ****
 1  2  3  4  5  17  18  19  20  21  22  23  24  25 0
 3-21G
 ****
 26  28  29  30  38  39  40  41  42  43  44  45 0
 3-21G
 ****


