%nproc=1
%NoSave
%Mem=1900MB
#P OB98/GEN NMR

erre ene a

0 1
  C      -59.237     233.494     -73.073
  O      -59.001     232.135     -72.765
  H      -58.748     233.726     -74.023
  H      -58.813     234.137     -72.297
  H      -60.308     233.690     -73.174
  P      -59.737     231.492     -71.495
  C      -57.978     230.959     -69.685
  O      -58.893     231.917     -70.201
  C      -56.696     230.966     -70.514
  O      -56.188     232.313     -70.634
  C      -55.564     230.149     -69.906
  O      -55.769     228.764     -70.102
  C      -54.366     230.727     -70.641
  O      -54.236     230.146     -71.949
  C      -54.748     232.220     -70.735
  N      -54.092     233.040     -69.717
  C      -52.861     233.590     -70.060
  O      -52.307     233.387     -71.142
  N      -52.262     234.360     -69.099
  C      -52.710     234.539     -67.823
  O      -52.092     235.168     -66.970
  C      -54.004     233.915     -67.508
  C      -54.627     233.207     -68.454
  O      -60.049     230.037     -71.597
  O      -61.073     232.368     -71.352
  H      -54.230     229.177     -71.819
  H      -61.835     231.848     -71.672
  H      -51.363     234.756     -69.324
  H      -54.401     234.045     -66.511
  H      -55.577     232.736     -68.240
  H      -54.477     232.620     -71.723
  H      -53.429     230.543     -70.114
  H      -55.467     230.378     -68.838
  H      -56.939     230.605     -71.524
  H      -58.441     229.967     -69.736
  H      -57.765     231.199     -68.636
  P      -54.935     227.703     -69.242
  C      -53.520     226.172     -70.747
  O      -53.570     227.400     -70.030
  O      -55.694     226.495     -68.807
  O      -54.439     228.547     -67.975
  H      -54.797     228.147     -67.159
  H      -52.569     226.079     -71.229
  H      -54.296     226.157     -71.483
  H      -53.657     225.357     -70.068

 6  7  8  9  10  11  12  13  14  15  16  26  31  32  33  34  35 0
 6-311+G(2d,p)
 ****
 36  37 0
 6-311+G(2d,p)
 ****
 1  2  3  4  5  17  18  19  20  21  22  23  24  25 0
 3-21G
 ****
 27  28  29  30  38  39  40  41  42  43  44  45 0
 3-21G
 ****


