%nproc=1
%NoSave
%Mem=1900MB
#P OB98/GEN NMR

erre ene a

0 1
  C      198.270     219.555     -15.244
  O      198.284     219.450     -13.835
  P      197.017     218.899     -13.022
  C      198.428     217.017     -11.985
  O      197.299     217.337     -12.782
  C      198.291     215.629     -11.357
  O      197.089     215.580     -10.541
  C      198.212     214.476     -12.367
  O      198.862     213.359     -11.753
  C      196.719     214.233     -12.468
  O      196.405     212.950     -12.996
  C      196.288     214.477     -11.016
  N      194.859     214.745     -10.907
  C      194.005     213.642     -10.974
  O      194.459     212.518     -11.195
  N      192.653     213.841     -10.844
  C      192.191     215.049     -10.763
  N      190.844     215.186     -10.631
  C      193.048     216.248     -10.816
  C      194.359     216.026     -10.874
  O      195.691     219.215     -13.624
  O      197.215     219.513     -11.557
  H      195.438     212.809     -12.909
  H      196.954     220.468     -11.547
  H      192.612     217.236     -10.801
  H      195.066     216.841     -10.915
  H      196.525     213.606     -10.391
  H      196.267     214.983     -13.129
  H      198.668     214.706     -13.332
  H      199.145     215.478     -10.685
  H      190.295     214.336     -10.583
  H      198.498     217.757     -11.184
  H      190.391     216.072     -10.478
  H      199.341     217.084     -12.585
  P      199.684     212.291     -12.623
  C      201.971     213.370     -12.241
  O      200.973     213.046     -13.191
  O      198.880     211.561     -13.648
  O      200.298     211.284     -11.537
  H      200.595     210.470     -11.983
  H      202.898     213.615     -12.766
  H      202.156     212.531     -11.565
  H      201.652     214.240     -11.658
  H      199.208     219.942     -15.582
  H      197.483     220.214     -15.545
  H      198.108     218.588     -15.672

 3  4  5  6  7  8  9  10  11  12  13  23  27  28  29  30  32 0
 6-311+G(2d,p)
 ****
 34  35 0
 6-311+G(2d,p)
 ****
 1  2  14  15  16  17  18  19  20  21  22  24  25  26 0
 3-21G
 ****
 31  33  36  37  38  39  40  41  42  43  44  45  46 0
 3-21G
 ****


