%nproc=1
%NoSave
%Mem=1900MB
#P OB98/GEN NMR

erre ene a

0 1
  C     -249.339    -952.151     285.129
  O     -249.667    -951.196     284.147
  P     -251.178    -951.016     283.641
  C     -250.501    -949.454     281.697
  O     -251.076    -950.702     282.067
  C     -250.560    -949.252     280.182
  O     -249.617    -950.120     279.515
  C     -251.913    -949.610     279.577
  O     -253.037    -948.817     279.916
  C     -251.561    -949.714     278.104
  O     -251.512    -948.418     277.500
  C     -250.127    -950.331     278.154
  N     -250.124    -951.738     277.767
  C     -249.514    -952.054     276.567
  O     -248.981    -951.216     275.839
  N     -249.541    -953.360     276.201
  C     -250.178    -954.376     276.885
  O     -250.206    -955.536     276.472
  C     -250.840    -954.001     278.139
  C     -250.783    -952.707     278.529
  O     -251.993    -950.056     284.431
  O     -251.733    -952.520     283.653
  H     -251.478    -948.529     276.532
  H     -251.253    -953.150     283.082
  H     -249.104    -953.608     275.326
  H     -251.331    -954.775     278.699
  H     -251.266    -952.398     279.437
  H     -249.445    -949.773     277.473
  H     -252.295    -950.295     277.537
  H     -252.181    -950.627     279.898
  H     -250.274    -948.237     279.966
  H     -249.441    -949.458     282.006
  H     -251.012    -948.636     282.230
  P     -254.250    -949.324     280.805
  C     -256.003    -947.671     279.836
  O     -255.605    -949.018     280.028
  O     -254.202    -948.993     282.278
  O     -254.122    -950.914     280.651
  H     -254.440    -951.357     281.462
  H     -256.969    -947.655     279.326
  H     -255.284    -947.148     279.238
  H     -256.116    -947.176     280.807
  H     -248.288    -952.113     285.326
  H     -249.602    -953.127     284.779
  H     -249.878    -951.938     286.028

 3  4  5  6  7  8  9  10  11  12  13  23  28  29  30  31  32 0
 6-311+G(2d,p)
 ****
 33  34 0
 6-311+G(2d,p)
 ****
 1  2  14  15  16  17  18  19  20  21  22  24  25  26  27 0
 3-21G
 ****
 35  36  37  38  39  40  41  42  43  44  45 0
 3-21G
 ****


