%nproc=1
%NoSave
%Mem=1900MB
#P OB98/GEN NMR

erre ene a

0 1
  C      -69.079     173.018     -41.043
  O      -68.512     172.055     -40.173
  P      -67.193     172.472     -39.357
  C      -65.858     170.576     -40.534
  O      -66.261     171.168     -39.307
  C      -65.176     169.236     -40.273
  O      -63.998     169.411     -39.460
  C      -66.038     168.233     -39.519
  O      -66.954     167.561     -40.367
  C      -64.982     167.267     -39.007
  O      -64.600     166.356     -40.054
  C      -63.820     168.210     -38.670
  N      -61.948     166.902     -34.157
  C      -61.631     166.429     -35.414
  N      -60.731     165.425     -35.469
  N      -62.147     166.900     -36.519
  C      -63.041     167.899     -36.309
  C      -63.434     168.453     -35.112
  C      -62.863     167.914     -33.897
  O      -63.142     168.254     -32.753
  N      -64.351     169.451     -35.302
  C      -64.514     169.506     -36.608
  N      -63.774     168.555     -37.260
  O      -67.718     172.606     -37.851
  O      -66.533     173.720     -39.836
  H      -64.214     166.899     -40.770
  H      -67.077     173.113     -37.318
  H      -61.527     166.502     -33.335
  H      -65.166     170.201     -37.122
  H      -62.852     167.780     -38.944
  H      -65.332     166.659     -38.168
  H      -60.345     164.976     -34.652
  H      -66.543     168.704     -38.666
  H      -60.527     165.016     -36.373
  H      -64.861     168.822     -41.240
  H      -65.165     171.246     -41.047
  H      -66.737     170.435     -41.171
  P      -68.382     168.262     -40.588
  C      -69.911     166.298     -39.845
  O      -69.396     167.066     -40.915
  O      -68.203     169.010     -41.991
  O      -68.788     169.194     -39.496
  H      -68.803     169.777     -42.047
  H      -70.767     165.722     -40.208
  H      -70.243     166.938     -39.024
  H      -69.147     165.604     -39.486
  H      -69.945     172.605     -41.516
  H      -68.362     173.291     -41.789
  H      -69.358     173.885     -40.482

 3  4  5  6  7  8  9  10  11  12  23  26  30  31 0
 6-311+G(2d,p)
 ****
 33  35  36  37  38 0
 6-311+G(2d,p)
 ****
 1  2  13  14  15  16  17  18  19  20  21  22  24  25 0
 3-21G
 ****
 27  28  29  32  34  39  40  41  42  43  44  45  46  47  48  49 0
 3-21G
 ****


