%nproc=1
%NoSave
%Mem=1900MB
#P OB98/GEN NMR

erre ene a

0 1
  C       41.231     -77.614      15.561
  O       41.932     -78.750      15.099
  H       40.799     -77.093      14.704
  H       41.926     -76.939      16.066
  H       40.427     -77.900      16.244
  P       42.309     -79.871      16.182
  C       44.218     -80.836      14.713
  O       42.985     -81.083      15.372
  C       44.438     -81.855      13.594
  O       43.453     -81.612      12.544
  C       45.833     -81.790      12.949
  O       46.251     -83.120      12.616
  C       45.571     -81.038      11.657
  O       46.557     -81.303      10.668
  C       44.182     -81.559      11.304
  N       43.165     -81.148       6.407
  C       43.667     -82.209       7.134
  N       44.013     -83.319       6.444
  N       43.826     -82.185       8.430
  C       43.422     -81.022       9.000
  C       42.914     -79.899       8.393
  C       42.760     -79.932       6.953
  O       42.341     -79.019       6.251
  N       42.686     -78.907       9.312
  C       43.076     -79.422      10.466
  N       43.532     -80.704      10.327
  O       40.874     -80.450      16.597
  O       43.077     -79.386      17.365
  H       46.286     -80.858       9.838
  H       40.555     -79.998      17.400
  H       43.080     -81.212       5.406
  H       43.066     -78.908      11.416
  H       44.207     -82.570      10.877
  H       45.551     -79.957      11.849
  H       43.894     -83.424       5.449
  H       46.591     -81.310      13.577
  H       44.346     -84.119       6.969
  H       44.242     -82.858      13.991
  H       45.036     -80.919      15.435
  H       44.212     -79.819      14.306
  P       47.817     -83.457      12.685
  C       48.403     -84.473      10.361
  O       48.114     -84.712      11.731
  O       47.990     -84.066      14.155
  O       48.701     -82.272      12.475
  H       48.863     -83.817      14.515
  H       48.576     -85.405       9.865
  H       49.276     -83.860      10.282
  H       47.574     -83.974       9.903

 6  7  8  9  10  11  12  13  14  15  26  29  33  34 0
 6-311+G(2d,p)
 ****
 36  38  39  40  41 0
 6-311+G(2d,p)
 ****
 1  2  3  4  5  16  17  18  19  20  21  22  23  24  25 0
 3-21G
 ****
 27  28  30  31  32  35  37  42  43  44  45  46  47 0
 3-21G
 ****
 48  49 0
 3-21G
 ****


