%nproc=1
%NoSave
%Mem=1900MB
#P OB98/GEN NMR

erre ene a

0 1
  C      146.047    -166.497     -65.123
  O      145.051    -165.659     -64.565
  P      143.811    -166.384     -63.840
  C      142.222    -164.988     -65.370
  O      142.570    -166.258     -64.846
  C      141.791    -165.135     -66.832
  O      142.755    -165.923     -67.558
  C      140.446    -165.822     -67.023
  O      139.387    -164.901     -66.832
  C      140.568    -166.332     -68.455
  O      140.285    -165.284     -69.401
  C      142.044    -166.752     -68.520
  N      140.746    -171.485     -69.733
  C      140.182    -170.280     -70.116
  N      139.149    -170.352     -70.983
  N      140.593    -169.117     -69.690
  C      141.624    -169.200     -68.816
  C      142.256    -170.329     -68.350
  C      141.826    -171.607     -68.869
  O      142.356    -172.690     -68.636
  N      143.246    -170.017     -67.454
  C      143.231    -168.700     -67.405
  N      142.280    -168.154     -68.229
  O      143.453    -165.383     -62.649
  O      144.079    -167.777     -63.365
  H      140.997    -164.622     -69.366
  H      143.845    -165.692     -61.808
  H      140.398    -172.349     -70.106
  H      143.899    -168.096     -66.810
  H      142.485    -166.552     -69.504
  H      139.862    -167.141     -68.665
  H      138.762    -171.215     -71.335
  H      140.350    -166.671     -66.335
  H      138.721    -169.481     -71.274
  H      141.778    -164.132     -67.278
  H      143.088    -164.323     -65.314
  H      141.409    -164.562     -64.771
  P      138.471    -165.088     -65.526
  C      136.459    -165.574     -67.094
  O      137.208    -165.968     -65.958
  O      137.863    -163.626     -65.295
  O      139.206    -165.570     -64.320
  H      137.785    -163.454     -64.337
  H      136.025    -166.461     -67.555
  H      137.083    -165.059     -67.831
  H      135.652    -164.907     -66.778
  H      146.809    -165.895     -65.571
  H      145.607    -167.128     -65.867
  H      146.477    -167.102     -64.352

 3  4  5  6  7  8  9  10  11  12  23  26  30  31 0
 6-311+G(2d,p)
 ****
 33  35  36  37  38 0
 6-311+G(2d,p)
 ****
 1  2  13  14  15  16  17  18  19  20  21  22  24  25 0
 3-21G
 ****
 27  28  29  32  34  39  40  41  42  43  44  45  46  47  48  49 0
 3-21G
 ****


