%nproc=1
%NoSave
%Mem=1900MB
#P OB98/GEN NMR

erre ene a

0 1
  C      299.731    -371.456     314.997
  O      299.851    -372.818     315.357
  H      298.683    -371.244     314.765
  H      300.332    -371.258     314.104
  H      300.050    -370.810     315.816
  P      301.276    -373.323     315.893
  C      302.018    -375.399     317.272
  O      301.087    -374.853     316.349
  C      301.673    -376.862     317.570
  O      300.424    -376.904     318.316
  C      301.506    -377.719     316.316
  O      302.057    -379.015     316.574
  C      299.995    -377.830     316.157
  O      299.602    -379.002     315.437
  C      299.530    -377.784     317.618
  N      298.143    -377.329     317.720
  C      297.150    -378.325     317.657
  O      297.468    -379.511     317.518
  N      295.834    -377.947     317.704
  C      295.522    -376.691     317.713
  N      294.202    -376.376     317.729
  C      296.535    -375.603     317.709
  C      297.811    -375.996     317.721
  O      301.445    -372.550     317.284
  O      302.427    -373.090     314.970
  H      298.625    -379.017     315.386
  H      302.381    -372.352     317.473
  H      296.227    -374.568     317.692
  H      298.614    -375.272     317.712
  H      299.615    -378.783     318.078
  H      299.622    -376.956     315.609
  H      301.980    -377.291     315.430
  H      302.456    -377.271     318.230
  H      293.533    -377.145     317.713
  H      301.967    -374.821     318.205
  H      293.839    -375.426     317.690
  H      303.030    -375.320     316.855
  P      303.588    -379.236     316.185
  C      305.199    -381.271     315.968
  O      303.992    -380.757     316.509
  O      304.381    -378.394     317.293
  O      303.931    -378.784     314.787
  H      304.760    -377.585     316.890
  H      305.322    -382.289     316.274
  H      306.025    -380.690     316.322
  H      305.160    -381.222     314.900

 6  7  8  9  10  11  12  13  14  15  16  26  30  31  32  33  35 0
 6-311+G(2d,p)
 ****
 37  38 0
 6-311+G(2d,p)
 ****
 1  2  3  4  5  17  18  19  20  21  22  23  24  25 0
 3-21G
 ****
 27  28  29  34  36  39  40  41  42  43  44  45  46 0
 3-21G
 ****


