%nproc=1
%NoSave
%Mem=1900MB
#P OB98/GEN NMR

erre ene a

0 1
  C     -199.617      61.980     234.715
  O     -199.518      62.075     233.303
  P     -198.551      63.159     232.623
  C     -200.204      63.903     230.800
  O     -199.505      64.280     231.980
  C     -200.029      64.960     229.710
  O     -200.684      64.500     228.504
  C     -200.636      66.311     230.073
  O     -199.809      67.348     229.537
  C     -201.965      66.335     229.340
  O     -202.386      67.684     229.071
  C     -201.642      65.497     228.100
  N     -203.357      61.758     225.028
  C     -202.106      62.128     225.380
  N     -201.722      63.148     226.180
  C     -202.794      63.783     226.680
  C     -204.129      63.518     226.416
  C     -204.401      62.450     225.541
  N     -205.678      62.067     225.193
  N     -204.946      64.404     227.089
  C     -204.121      65.175     227.761
  N     -202.809      64.833     227.555
  O     -197.534      62.600     231.690
  O     -197.875      63.922     233.853
  H     -203.139      67.631     228.445
  H     -196.941      64.126     233.653
  H     -201.303      61.528     224.958
  H     -204.415      65.996     228.398
  H     -201.185      66.106     227.308
  H     -202.734      65.859     229.960
  H     -200.754      66.449     231.153
  H     -198.959      65.060     229.487
  H     -201.265      63.809     231.042
  H     -205.777      61.217     224.661
  H     -206.451      62.467     225.709
  H     -199.839      62.929     230.455
  P     -199.434      68.545     230.550
  C     -201.613      69.835     229.939
  O     -200.842      69.203     230.937
  O     -198.389      69.449     229.985
  O     -198.982      67.722     231.848
  H     -199.392      66.831     231.869
  H     -202.510      70.253     230.400
  H     -201.919      69.106     229.183
  H     -201.046      70.643     229.469
  H     -200.307      61.204     234.973
  H     -199.963      62.911     235.112
  H     -198.655      61.753     235.126

 3  4  5  6  7  8  9  10  11  12  22  25  29  30  31  32 0
 6-311+G(2d,p)
 ****
 33  36  37 0
 6-311+G(2d,p)
 ****
 1  2  13  14  15  16  17  18  19  20  21  23  24  26 0
 3-21G
 ****
 27  28  34  35  38  39  40  41  42  43  44  45  46  47  48 0
 3-21G
 ****


