%nproc=1
%NoSave
%Mem=1900MB
#P OB98/GEN NMR

erre ene a

0 1
  C     -117.008    -938.401     518.647
  O     -118.386    -938.666     518.862
  H     -116.803    -937.367     518.953
  H     -116.749    -938.521     517.594
  H     -116.400    -939.072     519.258
  P     -118.996    -940.018     518.250
  C     -120.082    -940.637     515.992
  O     -119.308    -939.681     516.704
  C     -119.995    -940.421     514.484
  O     -120.589    -939.162     514.106
  C     -118.571    -940.339     513.956
  O     -117.839    -941.542     514.037
  C     -118.776    -939.690     512.588
  O     -119.162    -940.634     511.588
  C     -119.949    -938.726     512.886
  N     -119.520    -937.334     512.975
  C     -120.184    -936.427     512.142
  O     -121.086    -936.763     511.359
  N     -119.787    -935.134     512.226
  C     -118.766    -934.659     512.998
  O     -118.438    -933.472     513.016
  C     -118.066    -935.662     513.826
  C     -118.473    -936.933     513.784
  O     -120.172    -940.594     518.990
  O     -117.743    -941.006     518.154
  H     -118.387    -941.199     511.421
  H     -118.033    -941.942     518.026
  H     -120.260    -934.455     511.643
  H     -117.246    -935.316     514.449
  H     -117.973    -937.692     514.378
  H     -120.714    -938.793     512.096
  H     -117.876    -939.183     512.227
  H     -118.014    -939.608     514.556
  H     -120.561    -941.219     513.985
  H     -121.130    -940.526     516.308
  H     -119.744    -941.648     516.249
  P     -116.363    -941.652     514.628
  C     -113.935    -941.201     513.763
  O     -115.329    -941.044     513.554
  O     -115.995    -942.935     515.295
  O     -116.388    -940.496     515.771
  H     -115.812    -940.808     516.504
  H     -113.400    -940.740     512.959
  H     -113.695    -942.243     513.800
  H     -113.659    -940.738     514.687

 6  7  8  9  10  11  12  13  14  15  16  26  31  32  33  34  35 0
 6-311+G(2d,p)
 ****
 36  37 0
 6-311+G(2d,p)
 ****
 1  2  3  4  5  17  18  19  20  21  22  23  24  25 0
 3-21G
 ****
 27  28  29  30  38  39  40  41  42  43  44  45 0
 3-21G
 ****


