%nproc=1
%NoSave
%Mem=1900MB
#P OB98/GEN NMR

erre ene a

0 1
  C     -660.883    -647.904     472.963
  O     -660.579    -647.081     474.066
  P     -660.379    -645.517     473.790
  C     -660.000    -645.107     476.344
  O     -659.529    -644.919     475.014
  C     -658.845    -644.914     477.344
  O     -657.854    -645.963     477.178
  C     -658.089    -643.609     477.147
  O     -658.789    -642.513     477.715
  C     -656.771    -643.890     477.857
  O     -656.876    -643.700     479.266
  C     -656.571    -645.403     477.530
  N     -655.578    -645.631     476.479
  C     -654.267    -645.249     476.787
  O     -653.968    -644.741     477.872
  N     -653.336    -645.451     475.789
  C     -653.595    -645.910     474.531
  O     -652.728    -646.013     473.667
  C     -655.002    -646.260     474.250
  C     -655.913    -646.097     475.215
  O     -661.832    -644.890     474.009
  O     -659.813    -645.195     472.444
  H     -657.336    -642.852     479.394
  H     -661.967    -644.142     473.373
  H     -652.390    -645.207     476.013
  H     -655.235    -646.628     473.271
  H     -656.951    -646.332     475.028
  H     -656.240    -645.945     478.435
  H     -655.949    -643.271     477.502
  H     -657.902    -643.434     476.082
  H     -659.252    -644.983     478.354
  H     -660.405    -646.122     476.450
  H     -660.798    -644.391     476.543
  P     -658.732    -641.112     476.925
  C     -661.109    -640.340     477.712
  O     -659.710    -640.140     477.731
  O     -659.526    -641.492     475.594
  O     -657.322    -640.629     476.695
  H     -660.223    -642.147     475.741
  H     -661.343    -641.421     477.695
  H     -661.537    -639.867     476.836
  H     -661.546    -639.909     478.604
  H     -660.989    -648.917     473.292
  H     -660.093    -647.843     472.244
  H     -661.798    -647.577     472.516

 3  4  5  6  7  8  9  10  11  12  13  23  28  29  30  31  32 0
 6-311+G(2d,p)
 ****
 33  34 0
 6-311+G(2d,p)
 ****
 1  2  14  15  16  17  18  19  20  21  22  24  25  26 0
 3-21G
 ****
 27  35  36  37  38  39  40  41  42  43  44  45 0
 3-21G
 ****


