%nproc=1
%NoSave
%Mem=1900MB
#P OB98/GEN NMR

erre ene a

0 1
  C      506.091    -894.640    -563.760
  O      506.182    -894.110    -562.460
  P      505.183    -892.970    -561.985
  C      504.433    -894.240    -559.869
  O      504.011    -893.630    -561.091
  C      503.300    -894.800    -559.013
  O      502.492    -893.730    -558.464
  C      502.325    -895.740    -559.794
  O      501.918    -896.720    -558.820
  C      501.174    -894.800    -560.157
  O      499.993    -895.510    -560.511
  C      501.107    -893.910    -558.927
  N      500.470    -892.630    -559.206
  C      499.137    -892.670    -559.685
  O      498.605    -893.790    -559.893
  N      498.511    -891.510    -559.975
  C      499.172    -890.370    -559.824
  N      498.445    -889.250    -560.120
  C      500.562    -890.310    -559.421
  C      501.142    -891.430    -559.107
  O      504.706    -892.040    -563.061
  O      506.031    -892.150    -560.873
  H      499.291    -894.830    -560.660
  H      505.738    -891.220    -560.899
  H      501.056    -889.350    -559.349
  H      502.149    -891.480    -558.795
  H      500.583    -894.430    -558.107
  H      501.504    -894.210    -561.049
  H      502.782    -896.250    -560.635
  H      503.765    -895.340    -558.192
  H      497.504    -889.350    -560.462
  H      505.000    -893.500    -559.297
  H      498.893    -888.340    -560.211
  H      505.168    -895.070    -560.113
  P      502.475    -898.210    -558.784
  C      503.530    -897.830    -556.480
  O      503.777    -898.170    -557.822
  O      502.707    -898.820    -560.114
  O      501.405    -899.040    -557.875
  H      501.523    -900.000    -558.083
  H      504.428    -898.050    -555.872
  H      502.683    -898.370    -556.034
  H      503.328    -896.760    -556.371
  H      506.842    -895.391    -563.892
  H      506.239    -893.858    -564.475
  H      505.123    -895.074    -563.901

 3  4  5  6  7  8  9  10  11  12  13  23  27  28  29  30  32 0
 6-311+G(2d,p)
 ****
 34  35 0
 6-311+G(2d,p)
 ****
 1  2  14  15  16  17  18  19  20  21  22  24  25  26 0
 3-21G
 ****
 31  33  36  37  38  39  40  41  42  43  44  45  46 0
 3-21G
 ****


