%nproc=1
%NoSave
%Mem=1900MB
#P OB98/GEN NMR

erre ene a

0 1
  C      466.114    -284.148      44.827
  O      466.333    -285.458      44.332
  H      465.043    -283.934      44.801
  H      466.631    -283.422      44.194
  H      466.467    -284.066      45.860
  P      467.833    -286.018      44.387
  C      467.001    -288.344      45.221
  O      467.725    -287.615      44.239
  C      466.745    -289.767      44.722
  O      465.769    -289.709      43.641
  C      467.999    -290.460      44.175
  O      467.955    -291.849      44.518
  C      467.862    -290.292      42.668
  O      468.582    -291.266      41.920
  C      466.339    -290.399      42.503
  N      465.869    -289.812      41.254
  C      466.076    -290.531      40.084
  O      466.569    -291.662      40.035
  N      465.702    -289.901      38.920
  C      465.174    -288.645      38.821
  O      464.885    -288.128      37.748
  C      464.982    -287.926      40.095
  C      465.333    -288.536      41.229
  O      468.247    -285.820      45.921
  O      468.799    -285.375      43.446
  H      468.660    -284.946      46.054
  H      468.272    -292.150      42.208
  H      465.850    -290.418      38.064
  H      464.581    -286.930      40.044
  H      465.222    -288.021      42.183
  H      466.021    -291.441      42.566
  H      468.211    -289.300      42.371
  H      468.924    -290.016      44.552
  H      466.292    -290.347      45.527
  H      466.043    -287.843      45.402
  H      467.574    -288.363      46.156
  P      468.861    -292.336      45.757
  C      467.215    -294.286      46.354
  O      468.522    -293.894      45.956
  O      468.136    -291.606      46.978
  O      470.304    -292.003      45.583
  H      467.163    -291.569      46.892
  H      467.172    -295.352      46.436
  H      466.506    -293.956      45.624
  H      466.983    -293.845      47.301

 6  7  8  9  10  11  12  13  14  15  16  27  31  32  33  34  35 0
 6-311+G(2d,p)
 ****
 36  37 0
 6-311+G(2d,p)
 ****
 1  2  3  4  5  17  18  19  20  21  22  23  24  25 0
 3-21G
 ****
 26  28  29  30  38  39  40  41  42  43  44  45 0
 3-21G
 ****


