%nproc=1
%NoSave
%Mem=1900MB
#P OB98/GEN NMR

erre ene a

0 1
  C      204.032    -121.815    -698.489
  O      205.359    -121.798    -697.951
  P      206.547    -121.702    -699.042
  C      206.716    -124.269    -699.480
  O      206.427    -122.977    -700.016
  C      206.167    -125.381    -700.372
  O      206.823    -126.638    -700.018
  C      204.650    -125.623    -700.244
  O      204.132    -125.965    -701.537
  C      204.556    -126.862    -699.374
  O      203.325    -127.552    -699.555
  C      205.800    -127.628    -699.860
  N      205.717    -132.586    -698.808
  C      205.262    -131.904    -699.927
  N      204.674    -132.655    -700.895
  N      205.367    -130.610    -700.091
  C      205.988    -129.993    -699.049
  C      206.497    -130.550    -697.886
  C      206.322    -131.986    -697.715
  O      206.657    -132.626    -696.723
  N      207.061    -129.605    -697.079
  C      206.892    -128.457    -697.743
  N      206.244    -128.655    -698.938
  O      207.864    -122.009    -698.168
  O      206.649    -120.380    -699.718
  H      203.164    -128.075    -698.742
  H      208.503    -121.271    -698.248
  H      205.589    -133.574    -698.731
  H      207.197    -127.495    -697.393
  H      205.614    -128.105    -700.830
  H      204.652    -126.568    -698.321
  H      204.630    -133.673    -700.872
  H      204.105    -124.778    -699.838
  H      204.386    -132.198    -701.734
  H      206.435    -125.159    -701.410
  H      206.284    -124.344    -698.485
  H      207.809    -124.359    -699.383
  P      203.444    -124.771    -702.381
  C      200.976    -125.527    -702.051
  O      201.973    -124.591    -701.738
  O      203.148    -125.447    -703.799
  O      204.278    -123.536    -702.490
  H      203.129    -124.765    -704.502
  H      201.361    -126.414    -702.559
  H      200.227    -125.056    -702.697
  H      200.486    -125.849    -701.118
  H      203.324    -121.880    -697.690
  H      203.920    -122.661    -699.135
  H      203.861    -120.917    -699.045

 3  4  5  6  7  8  9  10  11  12  23  26  30  31  33  0
 6-311+G(2d,p)
 ****
 35  36  37  38 0
 6-311+G(2d,p)
 ****
 1  2  13  14  15  16  17  18  19  20  21  22  24  25  27  28  29 0
 3-21G
 ****
 32  34  39  40  41  42  43  44  45  46  47  48  49 0
 3-21G
 ****


