%nproc=1
%NoSave
%Mem=1900MB
#P OB98/GEN NMR

erre ene a

0 1
  C     -391.538     144.265     498.078
  O     -392.176     145.191     497.214
  H     -392.244     143.465     498.314
  H     -391.244     144.760     499.007
  H     -390.661     143.832     497.590
  P     -391.296     146.442     496.731
  C     -393.449     147.865     497.053
  O     -392.335     147.556     496.225
  C     -393.987     149.247     496.703
  O     -392.934     150.230     496.862
  C     -394.452     149.383     495.264
  O     -395.735     148.819     495.054
  C     -394.416     150.896     495.080
  O     -395.606     151.515     495.585
  C     -393.205     151.301     495.926
  N     -391.463     153.798     491.823
  C     -392.660     153.810     492.443
  N     -393.045     153.123     493.542
  C     -392.021     152.386     494.016
  C     -390.746     152.277     493.494
  C     -390.472     153.030     492.340
  N     -389.262     153.005     491.687
  N     -389.990     151.384     494.234
  C     -390.789     150.977     495.192
  N     -392.031     151.555     495.109
  O     -390.621     145.908     495.379
  O     -390.276     146.919     497.710
  H     -395.404     152.461     495.677
  H     -389.704     145.628     495.560
  H     -393.419     154.449     491.997
  H     -390.531     150.262     495.967
  H     -393.391     152.209     496.513
  H     -394.324     151.156     494.028
  H     -393.718     148.927     494.580
  H     -394.796     149.501     497.404
  H     -393.139     147.851     498.107
  H     -394.224     147.102     496.904
  H     -389.156     153.516     490.830
  H     -388.552     152.349     492.003
  P     -395.991     148.017     493.693
  C     -398.518     148.597     494.003
  O     -397.544     147.620     493.665
  O     -395.244     146.621     493.920
  O     -395.506     148.711     492.467
  H     -394.852     146.312     493.083
  H     -399.495     148.166     493.933
  H     -398.443     149.424     493.328
  H     -398.349     148.938     495.003

 6  7  8  9  10  11  12  13  14  15  25  28  32  33  34  35 0
 6-311+G(2d,p)
 ****
 36  37  40 0
 6-311+G(2d,p)
 ****
 1  2  3  4  5  16  17  18  19  20  21  22  23  24 0
 3-21G
 ****
 26  27  29  30  31  38  39 41  42  43  44  45  46  47  48 0
 3-21G
 ****


