%nproc=1
%NoSave
%Mem=1900MB
#P OB98/GEN NMR

erre ene a

0 1
  C      -47.345     273.145      20.733
  O      -48.465     273.891      20.298
  H      -46.454     273.525      20.229
  H      -47.469     272.088      20.482
  H      -47.217     273.259      21.813
  P      -49.892     273.450      20.882
  C      -50.687     272.516      18.615
  O      -50.337     272.212      19.960
  C      -51.005     271.233      17.845
  O      -51.551     271.598      16.550
  C      -49.779     270.348      17.596
  O      -50.171     268.976      17.665
  C      -49.394     270.685      16.165
  O      -48.637     269.649      15.548
  C      -50.766     270.939      15.541
  N      -50.805     270.802      10.453
  C      -51.096     269.871      11.385
  N      -51.082     270.000      12.727
  C      -50.778     271.264      13.079
  C      -50.459     272.319      12.246
  C      -50.470     272.048      10.865
  N      -50.141     272.980       9.908
  N      -50.160     273.446      12.987
  C      -50.307     273.078      14.247
  N      -50.660     271.761      14.350
  O      -50.901     274.541      21.011
  O      -49.482     272.730      22.251
  H      -49.147     268.814      15.609
  H      -48.737     272.114      22.122
  H      -51.367     268.889      11.004
  H      -50.154     273.717      15.111
  H      -51.276     270.010      15.253
  H      -48.787     271.598      16.149
  H      -48.965     270.537      18.294
  H      -51.790     270.686      18.379
  H      -49.863     273.044      18.122
  H      -50.177     272.701       8.941
  H      -49.894     273.917      10.193
  H      -51.562     273.176      18.636
  P      -49.848     268.139      18.993
  C      -47.289     268.098      18.689
  O      -48.374     268.528      19.500
  O      -50.123     266.676      18.918
  O      -50.783     268.843      20.090
  H      -51.187     268.154      20.654
  H      -46.367     268.416      19.129
  H      -47.383     268.524      17.712
  H      -47.300     267.031      18.615

 6  7  8  9  10  11  12  13  14  15  25  28  32  33  34  35 0
 6-311+G(2d,p)
 ****
 36  39  40 0
 6-311+G(2d,p)
 ****
 1  2  3  4  5  16  17  18  19  20  21  22  23  24 0
 3-21G
 ****
 26  27  29  30  31  37  38  41  42  43  44  45  46  47 0
 3-21G
 ****
 48 0
 3-21G
 ****


