%nproc=1
%NoSave
%Mem=1900MB
#P OB98/GEN NMR

erre ene a

0 1
  C      579.882     256.259    1128.412
  O      580.868     255.329    1127.943
  P      581.824     255.646    1126.693
  C      581.099     253.724    1125.127
  O      581.103     255.126    1125.345
  C      580.266     253.340    1123.913
  O      578.854     253.638    1124.135
  C      580.663     254.053    1122.619
  O      581.796     253.481    1122.053
  C      579.375     253.895    1121.791
  O      579.296     252.592    1121.177
  C      578.270     254.032    1122.882
  N      573.986     256.766    1123.548
  C      574.221     255.414    1123.577
  N      575.383     254.782    1123.369
  C      576.383     255.659    1123.174
  C      576.316     257.029    1123.137
  C      575.036     257.598    1123.354
  N      574.781     258.953    1123.325
  N      577.538     257.612    1122.903
  C      578.366     256.571    1122.813
  N      577.709     255.368    1122.965
  O      583.221     255.152    1126.850
  O      581.785     257.241    1126.547
  H      579.336     251.947    1121.895
  H      582.616     257.549    1126.159
  H      573.353     254.793    1123.740
  H      579.434     256.653    1122.608
  H      577.432     253.336    1122.691
  H      579.284     254.644    1121.006
  H      580.816     255.117    1122.828
  H      580.338     252.258    1123.769
  H      580.681     253.223    1126.038
  H      573.839     259.279    1123.453
  H      575.548     259.581    1123.106
  H      582.125     253.374    1124.991
  P      583.244     254.090    1122.332
  C      583.637     255.125    1119.998
  O      583.396     255.381    1121.389
  O      584.385     253.118    1122.285
  O      583.099     254.764    1123.789
  H      583.961     254.738    1124.251
  H      584.691     254.875    1119.843
  H      583.376     256.014    1119.441
  H      582.997     254.306    1119.646
  H      579.365     255.839    1129.250
  H      579.183     256.463    1127.628
  H      580.362     257.168    1128.708

 3  4  5  6  7  8  9  10  11  12  22  25  29  30  31  32 0
 6-311+G(2d,p)
 ****
 33  36  37 0
 6-311+G(2d,p)
 ****
 1  2  13  14  15  16  17  18  19  20  21  23  24  26 0
 3-21G
 ****
 27  28  34  35  38  39  40  41  42  43  44  45  46  47  48 0
 3-21G
 ****


