%nproc=1
%NoSave
%Mem=1900MB
#P OB98/GEN NMR

erre ene a

0 1
  C      209.442     483.997    -761.699
  O      208.899     482.709    -761.376
  P      208.950     481.528    -762.452
  C      206.589     482.129    -763.329
  O      207.953     481.888    -763.664
  C      205.870     482.762    -764.532
  O      205.954     481.917    -765.709
  C      204.376     482.946    -764.296
  O      203.996     483.921    -763.339
  C      203.836     483.108    -765.708
  O      203.974     484.446    -766.184
  C      204.757     482.154    -766.502
  N      204.111     480.893    -766.850
  C      203.448     480.866    -768.068
  O      203.349     481.839    -768.817
  N      202.844     479.678    -768.406
  C      202.817     478.548    -767.626
  O      202.244     477.519    -767.962
  C      203.528     478.644    -766.333
  C      204.126     479.789    -766.011
  O      208.827     480.151    -761.920
  O      210.399     481.743    -763.133
  H      203.569     484.485    -767.077
  H      210.791     480.863    -763.273
  H      202.360     479.632    -769.294
  H      203.511     477.769    -765.689
  H      204.645     479.880    -765.064
  H      205.098     482.635    -767.433
  H      202.770     482.856    -765.766
  H      203.971     481.987    -763.915
  H      206.348     483.714    -764.772
  H      206.534     482.788    -762.467
  H      206.115     481.182    -763.045
  P      203.688     483.577    -761.814
  C      201.219     482.815    -762.153
  O      202.532     482.466    -761.751
  O      203.572     484.727    -760.857
  O      204.990     482.724    -761.401
  H      205.185     482.888    -760.470
  H      200.579     481.956    -762.040
  H      201.211     483.136    -763.195
  H      200.842     483.636    -761.517
  H      209.320     484.655    -760.864
  H      208.928     484.398    -762.548
  H      210.483     483.898    -761.926

 3  4  5  6  7  8  9  10  11  12  13  23  28  29  30  31  32 0
 6-311+G(2d,p)
 ****
 33  34 0
 6-311+G(2d,p)
 ****
 1  2  14  15  16  17  18  19  20  21  22  24  25  26  27 0
 3-21G
 ****
 35  36  37  38  39  40  41  42  43  44  45 0
 3-21G
 ****


