%nproc=1
%NoSave
%Mem=1900MB
#P OB98/GEN NMR

erre ene a

0 1
  C      525.231    -254.016    1111.679
  O      526.183    -253.132    1112.245
  H      524.338    -254.058    1112.311
  H      524.953    -253.652    1110.685
  H      525.666    -255.017    1111.582
  P      526.699    -253.462    1113.716
  C      528.788    -254.796    1112.944
  O      527.547    -254.822    1113.628
  C      529.940    -254.992    1113.926
  O      529.871    -256.358    1114.424
  C      531.344    -254.768    1113.331
  O      532.038    -253.758    1114.066
  C      532.060    -256.101    1113.534
  O      533.421    -255.946    1113.935
  C      531.232    -256.791    1114.614
  N      534.243    -260.762    1115.621
  C      534.210    -259.538    1116.154
  N      533.315    -258.547    1115.921
  C      532.367    -258.958    1115.052
  C      532.261    -260.209    1114.458
  C      533.281    -261.128    1114.747
  N      533.347    -262.380    1114.167
  N      531.151    -260.262    1113.617
  C      530.632    -259.059    1113.675
  N      531.337    -258.236    1114.527
  O      525.372    -253.902    1114.494
  O      527.394    -252.340    1114.415
  H      533.415    -255.361    1114.722
  H      525.314    -253.429    1115.353
  H      535.000    -259.287    1116.848
  H      529.776    -258.709    1113.109
  H      531.545    -256.479    1115.620
  H      532.022    -256.670    1112.597
  H      531.312    -254.499    1112.261
  H      529.780    -254.337    1114.790
  H      528.905    -253.817    1112.459
  H      534.162    -262.946    1114.359
  H      532.691    -262.619    1113.441
  H      528.796    -255.569    1112.167
  P      533.193    -252.953    1113.278
  C      531.401    -251.495    1112.072
  O      532.528    -252.366    1111.949
  O      534.130    -254.130    1112.727
  O      533.939    -251.985    1114.116
  H      535.034    -253.806    1112.622
  H      531.077    -251.192    1111.098
  H      531.678    -250.632    1112.641
  H      530.605    -252.009    1112.569

 6  7  8  9  10  11  12  13  14  15  25  28  32  33  34  35 0
 6-311+G(2d,p)
 ****
 36  39  40 0
 6-311+G(2d,p)
 ****
 1  2  3  4  5  16  17  18  19  20  21  22  23  24 0
 3-21G
 ****
 26  27  29  30  31  37  38  41  42  43  44  45  46  47  48 0
 3-21G
 ****


