%nproc=1
%NoSave
%Mem=1900MB
#P OB98/GEN NMR

erre ene a

0 1
  C     -214.917     152.769     -95.751
  O     -215.886     153.780     -95.930
  H     -214.467     152.537     -96.720
  H     -215.381     151.862     -95.354
  H     -214.134     153.114     -95.072
  P     -216.744     154.198     -94.641
  C     -218.799     153.041     -95.734
  O     -217.996     153.199     -94.570
  C     -220.201     152.596     -95.330
  O     -220.116     151.498     -94.389
  C     -221.013     153.671     -94.620
  O     -221.572     154.617     -95.516
  C     -222.073     152.826     -93.937
  O     -223.169     152.534     -94.816
  C     -221.298     151.547     -93.568
  N     -220.979     151.499     -92.143
  C     -221.960     150.940     -91.325
  O     -223.030     150.508     -91.751
  N     -221.684     150.931     -89.986
  C     -220.573     151.458     -89.395
  O     -220.413     151.467     -88.181
  C     -219.580     152.050     -90.307
  C     -219.827     152.048     -91.621
  O     -217.393     155.595     -95.073
  O     -215.962     154.313     -93.375
  H     -216.947     156.324     -94.605
  H     -223.742     151.908     -94.331
  H     -222.379     150.529     -89.377
  H     -218.687     152.478     -89.870
  H     -219.116     152.486     -92.311
  H     -221.890     150.656     -93.817
  H     -222.482     153.340     -93.071
  H     -220.402     154.165     -93.854
  H     -220.727     152.244     -96.226
  H     -218.358     152.279     -96.385
  H     -218.829     153.990     -96.277
  P     -221.257     156.169     -95.257
  C     -223.570     156.635     -94.094
  O     -222.155     156.593     -93.998
  O     -221.983     156.832     -96.519
  O     -219.799     156.459     -95.138
  H     -222.722     156.288     -96.838
  H     -223.982     156.938     -93.154
  H     -223.939     155.663     -94.348
  H     -223.855     157.335     -94.852

 6  7  8  9  10  11  12  13  14  15  16  27  31  32  33  34  35 0
 6-311+G(2d,p)
 ****
 36  37 0
 6-311+G(2d,p)
 ****
 1  2  3  4  5  17  18  19  20  21  22  23  24  25 0
 3-21G
 ****
 26  28  29  30  38  39  40  41  42  43  44  45 0
 3-21G
 ****


