%nproc=1
%NoSave
%Mem=1900MB
#P OB98/GEN NMR

erre ene a

0 1
  C     -196.326     269.873    -236.899
  O     -197.634     269.317    -236.909
  P     -198.638     269.741    -235.731
  C     -198.493     267.354    -234.740
  O     -198.344     268.748    -234.501
  C     -198.979     266.639    -233.484
  O     -199.626     265.393    -233.874
  C     -197.866     266.287    -232.484
  O     -198.312     266.583    -231.152
  C     -197.744     264.777    -232.605
  O     -197.222     264.186    -231.416
  C     -199.194     264.405    -232.914
  N     -200.401     259.650    -231.696
  C     -200.559     260.814    -230.971
  N     -201.052     260.682    -229.720
  N     -200.252     262.002    -231.424
  C     -199.797     261.986    -232.703
  C     -199.605     260.902    -233.529
  C     -199.892     259.587    -232.988
  O     -199.692     258.513    -233.552
  N     -199.144     261.288    -234.760
  C     -199.051     262.601    -234.681
  N     -199.389     263.070    -233.438
  O     -200.059     269.256    -236.282
  O     -198.652     271.194    -235.400
  H     -197.415     263.232    -231.467
  H     -200.680     270.009    -236.300
  H     -200.635     258.758    -231.294
  H     -198.714     263.248    -235.483
  H     -199.818     264.505    -232.015
  H     -197.076     264.533    -233.437
  H     -201.342     259.802    -229.322
  H     -196.914     266.796    -232.677
  H     -201.194     261.526    -229.179
  H     -199.749     267.258    -233.003
  H     -197.527     266.932    -235.044
  H     -199.211     267.211    -235.557
  P     -197.393     267.595    -230.308
  C     -196.724     265.697    -228.648
  O     -196.299     266.682    -229.578
  O     -198.355     268.068    -229.120
  O     -196.861     268.740    -231.108
  H     -198.072     268.937    -228.776
  H     -197.813     265.565    -228.656
  H     -196.412     265.996    -227.645
  H     -196.252     264.743    -228.898
  H     -195.775     269.503    -237.738
  H     -195.827     269.596    -235.994
  H     -196.391     270.939    -236.958

 3  4  5  6  7  8  9  10  11  12  23  26  30  31  33  0
 6-311+G(2d,p)
 ****
 35  36  37  38 0
 6-311+G(2d,p)
 ****
 1  2  13  14  15  16  17  18  19  20  21  22  24  25  27  28  29 0
 3-21G
 ****
 32  34  39  40  41  42  43  44  45  46  47  48  49 0
 3-21G
 ****


