%nproc=1
%NoSave
%Mem=1900MB
#P OB98/GEN NMR

erre ene a

0 1
  C       40.040      24.772      90.925
  O       40.555      23.689      91.694
  P       40.593      23.833      93.289
  C       42.019      25.195      95.053
  O       41.719      24.882      93.712
  C       43.513      25.542      95.172
  O       44.315      24.346      95.076
  C       43.998      26.494      94.082
  O       43.790      27.851      94.429
  C       45.461      26.115      93.965
  O       46.216      26.695      95.044
  C       45.388      24.578      94.121
  N       45.129      23.766      92.912
  C       46.070      23.732      91.886
  O       47.133      24.346      91.901
  N       45.758      22.942      90.811
  C       44.714      22.068      90.727
  O       44.517      21.341      89.763
  C       43.833      22.032      91.899
  C       44.067      22.872      92.910
  O       41.173      22.429      93.783
  O       39.267      24.143      93.913
  H       45.929      26.258      95.865
  H       40.503      21.950      94.306
  H       46.393      22.961      90.027
  H       43.018      21.320      91.897
  H       43.419      22.853      93.783
  H       46.313      24.192      94.566
  H       45.897      26.503      93.047
  H       43.513      26.257      93.130
  H       43.686      25.989      96.159
  H       41.779      24.357      95.713
  H       41.407      26.041      95.380
  P       42.707      28.721      93.634
  C       42.541      29.704      91.270
  O       43.304      28.906      92.155
  O       42.249      29.971      94.306
  O       41.502      27.690      93.393
  H       40.810      27.795      94.086
  H       43.126      29.881      90.364
  H       42.301      30.666      91.732
  H       41.619      29.181      91.001
  H       40.082      24.523      89.885
  H       40.627      25.648      91.106
  H       39.025      24.958      91.206

 3  4  5  6  7  8  9  10  11  12  13  23  28  29  30  31  32 0
 6-311+G(2d,p)
 ****
 33  34 0
 6-311+G(2d,p)
 ****
 1  2  14  15  16  17  18  19  20  21  22  24  25  26  27 0
 3-21G
 ****
 35  36  37  38  39  40  41  42  43  44  45 0
 3-21G
 ****


