%nproc=1
%NoSave
%Mem=1900MB
#P OB98/GEN NMR

erre ene a

0 1
  C     -307.394      44.382      12.222
  O     -306.834      44.507      10.918
  P     -307.096      43.313       9.880
  C     -309.483      44.274       9.358
  O     -308.246      43.789       8.870
  C     -310.407      44.700       8.202
  O     -309.831      45.868       7.562
  C     -310.576      43.670       7.091
  O     -311.744      44.000       6.334
  C     -309.343      43.920       6.247
  O     -309.479      43.373       4.940
  C     -309.201      45.459       6.319
  N     -307.798      45.925       6.284
  C     -307.118      45.896       5.066
  O     -307.616      45.499       4.012
  N     -305.811      46.300       5.094
  C     -305.142      46.767       6.187
  O     -303.946      47.036       6.174
  C     -305.941      46.912       7.409
  C     -307.204      46.482       7.406
  O     -307.798      42.190      10.774
  O     -305.859      42.813       9.214
  H     -310.362      43.654       4.606
  H     -307.171      41.465      10.960
  H     -305.289      46.219       4.235
  H     -305.459      47.339       8.280
  H     -307.806      46.564       8.310
  H     -309.725      45.944       5.486
  H     -308.476      43.443       6.714
  H     -310.634      42.634       7.434
  H     -311.383      44.993       8.611
  H     -309.309      45.114      10.038
  H     -309.975      43.490       9.949
  P     -313.071      43.136       6.584
  C     -314.806      44.632       7.753
  O     -314.301      44.166       6.516
  O     -313.052      42.232       7.771
  O     -313.227      42.316       5.215
  H     -313.813      41.549       5.356
  H     -315.220      45.635       7.610
  H     -314.024      44.675       8.516
  H     -315.604      43.963       8.090
  H     -307.141      45.244      12.803
  H     -307.003      43.506      12.696
  H     -308.458      44.302      12.147

 3  4  5  6  7  8  9  10  11  12  13  23  28  29  30  31  32 0
 6-311+G(2d,p)
 ****
 33  34 0
 6-311+G(2d,p)
 ****
 1  2  14  15  16  17  18  19  20  21  22  24  25  26  27 0
 3-21G
 ****
 35  36  37  38  39  40  41  42  43  44  45 0
 3-21G
 ****


