%nproc=1
%NoSave
%Mem=1900MB
#P OB98/GEN NMR

erre ene a

0 1
  C     -149.414     -95.309     118.767
  O     -148.066     -95.450     118.363
  H     -149.865     -94.492     118.197
  H     -149.469     -95.069     119.833
  H     -149.964     -96.231     118.562
  P     -147.207     -96.580     119.111
  C     -146.365     -94.871     120.847
  O     -146.004     -95.770     119.806
  C     -145.129     -94.144     121.377
  O     -144.194     -95.132     121.881
  C     -144.405     -93.318     120.312
  O     -143.925     -92.111     120.900
  C     -143.230     -94.196     119.919
  O     -142.139     -93.441     119.398
  C     -142.930     -94.919     121.231
  N     -138.457     -97.352     121.545
  C     -138.854     -96.133     121.969
  N     -140.076     -95.567     121.858
  C     -140.941     -96.417     121.278
  C     -140.682     -97.686     120.790
  C     -139.364     -98.152     120.936
  N     -138.944     -99.382     120.483
  N     -141.819     -98.227     120.222
  C     -142.751     -97.307     120.377
  N     -142.264     -96.188     120.994
  O     -146.794     -97.742     118.272
  O     -148.149     -96.933     120.355
  H     -142.410     -93.061     118.537
  H     -148.513     -96.127     120.767
  H     -138.093     -95.530     122.455
  H     -143.782     -97.395     120.049
  H     -142.287     -94.332     121.897
  H     -143.546     -94.909     119.147
  H     -145.043     -93.084     119.458
  H     -145.426     -93.523     122.231
  H     -146.849     -95.416     121.666
  H     -137.984     -99.644     120.642
  H     -139.610    -100.001     120.044
  H     -147.082     -94.152     120.439
  P     -144.767     -90.765     120.679
  C     -142.989     -89.883     119.030
  O     -143.766     -89.609     120.192
  O     -145.694     -90.387     121.785
  O     -145.587     -91.089     119.339
  H     -146.480     -90.697     119.410
  H     -142.367     -89.041     118.810
  H     -143.640     -90.071     118.202
  H     -142.377     -90.743     119.205

 6  7  8  9  10  11  12  13  14  15  25  28  32  33  34  35 0
 6-311+G(2d,p)
 ****
 36  39  40 0
 6-311+G(2d,p)
 ****
 1  2  3  4  5  16  17  18  19  20  21  22  23  24 0
 3-21G
 ****
 26  27  29  30  31  37  38  41  42  43  44  45  46  47 0
 3-21G
 ****
 48 0
 3-21G
 ****


