%nproc=1
%NoSave
%Mem=1900MB
#P OB98/GEN NMR

erre ene a

0 1
  C       18.729     339.929    -665.317
  O       17.883     339.325    -664.351
  P       16.980     340.277    -663.432
  C       17.626     339.062    -661.242
  O       16.579     339.427    -662.137
  C       17.732     337.550    -661.107
  O       16.520     337.045    -660.470
  C       17.877     336.802    -662.444
  O       18.867     335.761    -662.295
  C       16.534     336.119    -662.633
  O       16.626     334.955    -663.450
  C       16.158     335.851    -661.174
  N       12.482     332.584    -662.323
  C       13.839     332.465    -662.513
  N       14.270     331.359    -663.156
  N       14.700     333.373    -662.119
  C       14.129     334.417    -661.463
  C       12.789     334.632    -661.208
  C       11.839     333.660    -661.708
  O       10.620     333.735    -661.652
  N       12.598     335.795    -660.511
  C       13.814     336.296    -660.342
  N       14.770     335.516    -660.955
  O       15.626     340.394    -664.257
  O       17.569     341.642    -663.162
  H       16.983     335.243    -664.310
  H       15.410     341.334    -664.435
  H       11.863     331.867    -662.665
  H       14.041     337.217    -659.822
  H       16.772     335.024    -660.775
  H       15.838     336.825    -663.104
  H       13.663     330.612    -663.453
  H       18.144     337.437    -663.298
  H       15.272     331.259    -663.285
  H       18.560     337.316    -660.428
  H       17.436     339.495    -660.260
  H       18.576     339.467    -661.627
  P       20.196     335.930    -663.205
  C       20.079     333.471    -664.094
  O       20.798     334.454    -663.358
  O       21.223     336.664    -662.216
  O       19.972     336.690    -664.472
  H       21.889     337.162    -662.738
  H       19.228     333.920    -664.630
  H       19.710     332.712    -663.409
  H       20.750     333.015    -664.818
  H       19.264     339.169    -665.848
  H       19.424     340.578    -664.826
  H       18.137     340.495    -666.005

 3  4  5  6  7  8  9  10  11  12  23  26  30  31  33  0
 6-311+G(2d,p)
 ****
 35  36  37  38 0
 6-311+G(2d,p)
 ****
 1  2  13  14  15  16  17  18  19  20  21  22  24  25  27  28  29 0
 3-21G
 ****
 32  34  39  40  41  42  43  44  45  46  47  48  49 0
 3-21G
 ****


