%nproc=1
%NoSave
%Mem=1900MB
#P OB98/GEN NMR

erre ene a

0 1
  C      281.892    -322.096     355.573
  O      282.149    -323.158     356.497
  P      283.562    -323.142     357.236
  C      284.462    -323.712     359.615
  O      283.404    -323.838     358.676
  C      283.916    -323.837     361.045
  O      283.160    -322.657     361.431
  C      282.957    -325.008     361.229
  O      283.659    -326.234     361.277
  C      282.279    -324.616     362.526
  O      283.109    -324.931     363.658
  C      282.151    -323.082     362.381
  N      278.061    -320.223     363.554
  C      279.219    -320.475     364.201
  N      280.260    -321.246     363.836
  C      280.026    -321.806     362.627
  C      278.893    -321.651     361.841
  C      277.873    -320.830     362.348
  N      276.698    -320.598     361.683
  N      279.019    -322.379     360.671
  C      280.194    -322.975     360.769
  N      280.843    -322.644     361.929
  O      283.781    -321.596     357.591
  O      284.691    -323.689     356.399
  H      283.334    -325.893     363.590
  H      284.475    -321.215     357.012
  H      279.330    -319.975     365.170
  H      280.614    -323.655     360.036
  H      282.373    -322.563     363.324
  H      281.309    -325.121     362.684
  H      282.223    -325.035     360.406
  H      284.766    -323.936     361.725
  H      284.957    -322.743     359.495
  H      275.976    -320.060     362.152
  H      276.511    -321.103     360.826
  H      285.202    -324.490     359.402
  P      283.491    -327.246     360.043
  C      285.263    -328.839     359.060
  O      284.689    -328.301     360.243
  O      284.020    -326.352     358.814
  O      282.129    -327.831     359.883
  H      284.853    -325.893     359.044
  H      286.073    -329.524     359.344
  H      285.658    -328.038     358.437
  H      284.506    -329.417     358.509
  H      280.918    -322.221     355.148
  H      282.626    -322.115     354.795
  H      281.940    -321.158     356.085

 3  4  5  6  7  8  9  10  11  12  22  25  29  30  31  32 0
 6-311+G(2d,p)
 ****
 33  36  37 0
 6-311+G(2d,p)
 ****
 1  2  13  14  15  16  17  18  19  20  21  23  24  26 0
 3-21G
 ****
 27  28  34  35  38  39  40  41  42  43  44  45  46  47  48 0
 3-21G
 ****


