%nproc=1
%NoSave
%Mem=1900MB
#P OB98/GEN NMR

erre ene a

0 1
  C     -100.414    -448.148    -898.980
  O      -99.322    -448.440    -898.130
  P      -97.982    -447.555    -898.290
  C      -96.053    -446.924    -896.660
  O      -97.426    -447.311    -896.810
  C      -95.617    -447.112    -895.220
  O      -96.269    -446.174    -894.340
  C      -95.959    -448.491    -894.640
  O      -95.026    -449.494    -895.030
  C      -95.834    -448.234    -893.140
  O      -94.465    -448.255    -892.740
  C      -96.411    -446.796    -893.030
  N      -99.733    -448.417    -889.580
  C      -98.354    -448.455    -889.560
  N      -97.784    -449.079    -888.530
  N      -97.593    -447.949    -890.500
  C      -98.304    -447.359    -891.500
  C      -99.694    -447.253    -891.600
  C     -100.505    -447.820    -890.580
  O     -101.733    -447.869    -890.540
  N     -100.043    -446.579    -892.760
  C      -98.874    -446.289    -893.340
  N      -97.830    -446.786    -892.630
  O      -98.553    -446.105    -898.710
  O      -96.993    -448.069    -899.290
  H      -94.448    -448.081    -891.780
  H      -97.844    -445.576    -899.100
  H     -100.254    -448.821    -888.840
  H      -98.784    -445.742    -894.260
  H      -95.842    -446.186    -892.300
  H      -96.360    -448.968    -892.530
  H      -98.316    -449.553    -887.780
  H      -96.986    -448.797    -894.870
  H      -96.761    -449.194    -888.500
  H      -94.514    -446.949    -895.150
  H      -95.933    -445.859    -896.930
  H      -95.439    -447.517    -897.330
  P      -95.538    -451.012    -895.000
  C      -94.614    -453.185    -896.110
  O      -94.600    -451.787    -896.090
  O      -96.967    -450.922    -895.750
  O      -95.638    -451.618    -893.670
  H      -97.534    -451.648    -895.470
  H      -94.120    -453.524    -897.050
  H      -95.646    -453.583    -896.070
  H      -94.030    -453.577    -895.270
  H     -101.225    -448.811    -898.760
  H     -100.116    -448.275    -900.000
  H     -100.727    -447.137    -898.824

 3  4  5  6  7  8  9  10  11  12  23  26  30  31 0
 6-311+G(2d,p)
 ****
 33  35  36  37  38 0
 6-311+G(2d,p)
 ****
 1  2  13  14  15  16  17  18  19  20  21  22  24  25 0
 3-21G
 ****
 27  28  29  32  34  39  40  41  42  43  44  45  46  47  48  49 0
 3-21G
 ****


