%nproc=1
%NoSave
%Mem=1900MB
#P OB98/GEN NMR

erre ene a

0 1
  C     -328.570    -326.393     129.275
  O     -328.382    -327.790     129.194
  H     -327.732    -325.958     129.826
  H     -329.498    -326.165     129.804
  H     -328.598    -325.959     128.272
  P     -329.539    -328.636     128.469
  C     -327.760    -330.197     127.399
  O     -328.935    -330.097     128.194
  C     -327.416    -331.669     127.182
  O     -327.056    -332.281     128.438
  C     -328.573    -332.505     126.641
  O     -328.758    -332.324     125.250
  C     -328.106    -333.905     126.999
  O     -327.204    -334.427     126.006
  C     -327.382    -333.681     128.343
  N     -328.178    -334.141     129.477
  C     -327.986    -335.465     129.856
  O     -327.195    -336.219     129.284
  N     -328.755    -335.908     130.895
  C     -329.707    -335.186     131.551
  O     -330.417    -335.664     132.427
  C     -329.861    -333.786     131.117
  C     -329.108    -333.336     130.110
  O     -329.613    -327.972     127.014
  O     -330.860    -328.625     129.162
  H     -330.389    -327.384     126.958
  H     -326.815    -335.236     126.389
  H     -328.638    -336.868     131.176
  H     -330.605    -333.184     131.623
  H     -329.216    -332.314     129.761
  H     -326.429    -334.227     128.360
  H     -328.939    -334.602     127.064
  H     -329.489    -332.285     127.198
  H     -326.551    -331.729     126.509
  H     -326.929    -329.710     127.917
  H     -327.931    -329.692     126.444
  P     -330.071    -331.552     124.749
  C     -329.145    -330.750     122.421
  O     -330.036    -331.582     123.140
  O     -329.708    -330.041     125.116
  O     -331.338    -332.061     125.352
  H     -328.765    -329.840     125.002
  H     -329.272    -330.914     121.371
  H     -328.138    -330.982     122.699
  H     -329.351    -329.725     122.649

 6  7  8  9  10  11  12  13  14  15  16  27  31  32  33  34  35 0
 6-311+G(2d,p)
 ****
 36  37 0
 6-311+G(2d,p)
 ****
 1  2  3  4  5  17  18  19  20  21  22  23  24  25 0
 3-21G
 ****
 26  28  29  30  38  39  40  41  42  43  44  45 0
 3-21G
 ****


