%nproc=1
%NoSave
%Mem=1900MB
#P OB98/GEN NMR

erre ene a

0 1
  C       45.535     304.666     -20.884
  O       44.837     305.745     -21.523
  P       43.963     305.410     -22.824
  C       41.994     303.801     -23.384
  O       42.712     304.507     -22.382
  C       40.489     303.859     -23.108
  O       40.178     303.461     -21.757
  C       39.890     305.249     -23.265
  O       39.614     305.546     -24.627
  C       38.595     305.104     -22.483
  O       37.609     304.433     -23.292
  C       39.020     304.207     -21.315
  N       37.262     307.311     -17.640
  C       36.669     306.779     -18.732
  N       37.207     305.976     -19.672
  C       38.495     305.719     -19.396
  C       39.234     306.190     -18.324
  C       38.566     307.024     -17.414
  N       39.175     307.561     -16.303
  N       40.530     305.721     -18.378
  C       40.569     304.967     -19.458
  N       39.366     304.942     -20.112
  O       44.890     304.382     -23.629
  O       43.626     306.606     -23.650
  H       38.019     303.607     -23.615
  H       44.775     304.514     -24.588
  H       35.620     307.032     -18.867
  H       41.436     304.421     -19.803
  H       38.244     303.482     -21.042
  H       38.167     306.068     -22.196
  H       40.531     306.008     -22.797
  H       39.991     303.164     -23.796
  H       42.329     302.761     -23.423
  H       38.623     308.128     -15.680
  H       40.141     307.333     -16.118
  H       42.229     304.235     -24.363
  P       40.574     306.604     -25.357
  C       43.019     306.483     -26.227
  O       42.023     305.922     -25.397
  O       40.719     307.767     -24.268
  O       40.051     307.115     -26.657
  H       40.854     308.627     -24.711
  H       43.994     306.103     -25.912
  H       43.028     307.574     -26.152
  H       42.843     306.186     -27.265
  H       46.071     305.040     -20.037
  H       46.223     304.227     -21.576
  H       44.831     303.926     -20.563

 3  4  5  6  7  8  9  10  11  12  22  25  29  30  31  32 0
 6-311+G(2d,p)
 ****
 33  36  37 0
 6-311+G(2d,p)
 ****
 1  2  13  14  15  16  17  18  19  20  21  23  24  26 0
 3-21G
 ****
 27  28  34  35  38  39  40  41  42  43  44  45  46  47  48 0
 3-21G
 ****


