%nproc=1
%NoSave
%Mem=1900MB
#P OB98/GEN NMR

erre ene a

0 1
  C     -163.732     833.893     242.491
  O     -162.336     834.003     242.699
  H     -164.109     834.864     242.184
  H     -164.215     833.609     243.415
  H     -163.948     833.171     241.707
  P     -161.485     832.676     242.997
  C     -159.405     833.876     242.071
  O     -159.953     833.116     243.144
  C     -158.018     834.401     242.471
  O     -157.262     833.354     243.153
  C     -157.158     834.842     241.283
  O     -157.567     836.087     240.758
  C     -155.765     834.826     241.934
  O     -155.544     836.049     242.663
  C     -155.865     833.615     242.889
  N     -155.204     832.430     242.352
  C     -154.119     831.946     243.090
  O     -153.755     832.441     244.165
  N     -153.458     830.879     242.542
  C     -153.663     830.365     241.285
  O     -152.898     829.599     240.744
  C     -154.827     830.901     240.562
  C     -155.522     831.905     241.115
  O     -161.741     831.531     242.069
  O     -161.895     832.304     244.501
  H     -162.552     831.578     244.487
  H     -154.663     835.960     243.076
  H     -152.649     830.539     243.060
  H     -155.085     830.472     239.592
  H     -156.400     832.314     240.593
  H     -155.404     833.861     243.851
  H     -154.996     834.739     241.190
  H     -157.188     834.064     240.508
  H     -158.154     835.246     243.190
  H     -160.066     834.726     241.871
  H     -159.334     833.235     241.176
  P     -157.350     836.424     239.217
  C     -158.986     838.411     239.264
  O     -157.666     837.993     238.993
  O     -158.030     835.505     238.251
  O     -155.777     836.354     239.026
  H     -155.575     835.766     238.249
  H     -159.072     839.462     239.080
  H     -159.222     838.207     240.288
  H     -159.665     837.881     238.629

 6  7  8  9  10  11  12  13  14  15  16  27  31  32  33  34  35 0
 6-311+G(2d,p)
 ****
 36  37 0
 6-311+G(2d,p)
 ****
 1  2  3  4  5  17  18  19  20  21  22  23  24  25 0
 3-21G
 ****
 26  28  29  30  38  39  40  41  42  43  44  45 0
 3-21G
 ****


