%nproc=1
%NoSave
%Mem=1900MB
#P OB98/GEN NMR

erre ene a

0 1
  C     -107.392    -704.779     -78.534
  O     -107.316    -704.025     -79.727
  H     -108.112    -704.322     -77.850
  H     -107.730    -705.790     -78.773
  H     -106.412    -704.844     -78.046
  P     -106.559    -702.616     -79.659
  C     -108.743    -701.235     -79.386
  O     -107.509    -701.636     -78.806
  C     -109.291    -699.991     -78.670
  O     -108.240    -698.980     -78.638
  C     -110.517    -699.360     -79.354
  O     -111.414    -698.906     -78.339
  C     -109.934    -698.155     -80.073
  O     -110.890    -697.123     -80.290
  C     -108.804    -697.758     -79.119
  N     -107.775    -693.051     -80.764
  C     -108.685    -693.523     -79.888
  N     -108.858    -694.794     -79.464
  C     -107.919    -695.605     -79.988
  C     -106.924    -695.272     -80.899
  C     -106.876    -693.922     -81.296
  N     -105.994    -693.446     -82.243
  N     -106.193    -696.392     -81.246
  C     -106.761    -697.389     -80.587
  N     -107.807    -696.958     -79.816
  O     -106.708    -702.069     -81.160
  O     -105.136    -702.669     -79.228
  H     -110.420    -696.296     -80.524
  H     -105.970    -702.403     -81.705
  H     -109.378    -692.781     -79.480
  H     -106.472    -698.423     -80.653
  H     -109.160    -697.171     -78.274
  H     -109.533    -698.467     -81.050
  H     -111.041    -700.038     -80.040
  H     -109.516    -700.255     -77.637
  H     -109.469    -702.049     -79.277
  H     -106.105    -692.490     -82.551
  H     -105.395    -694.096     -82.727
  H     -108.597    -701.027     -80.446
  P     -112.588    -699.900     -77.895
  C     -114.313    -698.152     -78.784
  O     -113.922    -699.528     -78.711
  O     -112.930    -699.427     -76.393
  O     -112.212    -701.350     -77.938
  H     -113.210    -700.193     -75.846
  H     -115.213    -698.067     -79.356
  H     -113.537    -697.585     -79.254
  H     -114.481    -697.776     -77.796

 6  7  8  9  10  11  12  13  14  15  25  28  32  33  34  35 0
 6-311+G(2d,p)
 ****
 36  39  40 0
 6-311+G(2d,p)
 ****
 1  2  3  4  5  16  17  18  19  20  21  22  23  24 0
 3-21G
 ****
 26  27  29  30  31  37  38  41  42  43  44  45  46  47 0
 3-21G
 ****
 48 0
 3-21G
 ****


