%nproc=1
%NoSave
%Mem=1900MB
#P OB98/GEN NMR

erre ene a

0 1
  C     -292.201    -450.821      95.499
  O     -293.086    -451.229      96.543
  P     -294.469    -450.443      96.747
  C     -293.628    -448.897      98.623
  O     -294.156    -448.969      97.305
  C     -294.459    -447.986      99.541
  O     -294.359    -446.600      99.125
  C     -295.958    -448.340      99.594
  O     -296.398    -448.082     100.933
  C     -296.553    -447.338      98.628
  O     -297.954    -447.182      98.810
  C     -295.706    -446.107      98.938
  N     -295.764    -445.096      97.884
  C     -296.793    -444.151      97.972
  O     -297.648    -444.251      98.847
  N     -296.823    -443.141      97.040
  C     -296.007    -443.161      96.034
  N     -296.060    -442.132      95.146
  C     -295.028    -444.257      95.816
  C     -294.951    -445.158      96.787
  O     -295.528    -451.185      97.491
  O     -294.936    -450.151      95.235
  H     -298.288    -446.510      98.167
  H     -295.912    -450.193      95.187
  H     -294.421    -444.273      94.923
  H     -294.261    -445.990      96.718
  H     -296.011    -445.644      99.882
  H     -296.383    -447.670      97.597
  H     -296.166    -449.382      99.336
  H     -294.028    -448.052     100.552
  H     -296.749    -441.407      95.296
  H     -292.602    -448.516      98.576
  H     -295.422    -442.055      94.362
  H     -293.560    -449.914      99.037
  P     -296.998    -449.296     101.795
  C     -299.544    -448.755     101.890
  O     -298.507    -449.543     101.327
  O     -297.213    -448.594     103.234
  O     -296.125    -450.495     101.947
  H     -297.192    -449.279     103.927
  H     -300.436    -448.846     101.260
  H     -299.261    -447.693     101.925
  H     -299.774    -449.110     102.891
  H     -291.333    -451.446      95.503
  H     -291.909    -449.804      95.656
  H     -292.698    -450.907      94.556

 3  4  5  6  7  8  9  10  11  12  13  23  27  28  29  30  32 0
 6-311+G(2d,p)
 ****
 34  35 0
 6-311+G(2d,p)
 ****
 1  2  14  15  16  17  18  19  20  21  22  24  25  26 0
 3-21G
 ****
 31  33  36  37  38  39  40  41  42  43  44  45  46 0
 3-21G
 ****


