%nproc=1
%NoSave
%Mem=1900MB
#P OB98/GEN NMR

erre ene a

0 1
  C       54.520     352.419     777.182
  O       55.796     352.110     777.703
  H       53.771     351.834     777.718
  H       54.480     352.153     776.121
  H       54.290     353.481     777.309
  P       57.045     353.026     777.298
  C       57.753     351.928     775.072
  O       57.098     353.023     775.693
  C       57.565     351.996     773.554
  O       58.226     353.207     773.068
  C       58.179     350.795     772.804
  O       57.365     350.508     771.664
  C       59.514     351.361     772.366
  O       60.070     350.634     771.299
  C       59.121     352.798     772.018
  N       60.290     353.661     771.916
  C       60.291     354.611     770.896
  O       59.371     354.742     770.093
  N       61.424     355.366     770.783
  C       62.576     355.195     771.492
  O       63.589     355.848     771.289
  C       62.540     354.135     772.521
  C       61.418     353.435     772.688
  O       58.341     352.694     777.963
  O       56.565     354.520     777.619
  H       60.887     351.070     770.987
  H       57.334     355.111     777.724
  H       61.434     356.065     770.055
  H       63.443     353.964     773.092
  H       61.361     352.640     773.421
  H       58.566     352.834     771.071
  H       60.223     351.337     773.196
  H       58.271     349.904     773.430
  H       56.499     352.104     773.331
  H       57.319     351.005     775.461
  H       58.818     351.953     775.321
  P       56.059     349.577     771.765
  C       57.062     347.277     772.327
  O       56.299     348.382     772.811
  O       55.524     349.127     770.444
  O       54.977     350.504     772.501
  H       54.126     350.432     772.033
  H       57.160     346.545     773.101
  H       58.033     347.616     772.032
  H       56.565     346.842     771.485

 6  7  8  9  10  11  12  13  14  15  16  26  31  32  33  34  35 0
 6-311+G(2d,p)
 ****
 36  37 0
 6-311+G(2d,p)
 ****
 1  2  3  4  5  17  18  19  20  21  22  23  24  25 0
 3-21G
 ****
 27  28  29  30  38  39  40  41  42  43  44  45 0
 3-21G
 ****


