%nproc=1
%NoSave
%Mem=1900MB
#P OB98/GEN NMR

erre ene a

0 1
  C       42.864     729.510     161.959
  O       43.211     730.551     162.849
  H       42.843     728.568     162.513
  H       43.603     729.434     161.159
  H       41.874     729.693     161.535
  P       43.405     732.010     162.203
  C       41.029     733.073     162.366
  O       42.309     732.907     162.960
  C       39.937     732.766     163.385
  O       40.064     731.411     163.876
  C       39.964     733.647     164.634
  O       39.430     734.939     164.422
  C       39.097     732.817     165.559
  O       37.715     732.956     165.177
  C       39.620     731.399     165.260
  N       40.716     730.992     166.147
  C       40.358     730.580     167.437
  O       39.179     730.570     167.791
  N       41.354     730.221     168.316
  C       42.595     730.249     167.935
  N       43.533     729.887     168.851
  C       43.011     730.662     166.585
  C       42.035     731.016     165.753
  O       42.777     731.853     160.738
  O       44.792     732.557     162.227
  H       37.516     733.910     165.195
  H       42.712     732.738     160.304
  H       44.057     730.682     166.317
  H       42.267     731.329     164.740
  H       38.815     730.656     165.339
  H       39.165     733.116     166.603
  H       40.975     733.708     165.058
  H       38.969     732.839     162.873
  H       43.215     729.665     169.785
  H       40.951     732.388     161.517
  H       44.527     730.018     168.700
  H       40.912     734.102     162.010
  P       40.160     736.170     165.152
  C       41.150     736.913     162.860
  O       40.430     737.282     164.033
  O       41.618     735.593     165.463
  O       39.474     736.660     166.390
  H       41.965     735.955     166.302
  H       41.245     737.763     162.217
  H       40.623     736.136     162.348
  H       42.123     736.563     163.134

 6  7  8  9  10  11  12  13  14  15  16  26  30  31  32  33  35 0
 6-311+G(2d,p)
 ****
 37  38 0
 6-311+G(2d,p)
 ****
 1  2  3  4  5  17  18  19  20  21  22  23  24  25 0
 3-21G
 ****
 27  28  29  34  36  39  40  41  42  43  44  45  46 0
 3-21G
 ****


