%nproc=1
%NoSave
%Mem=1900MB
#P OB98/GEN NMR

erre ene a

0 1
  C        1.969     -59.735     151.243
  O        1.261     -58.765     151.996
  P        1.999     -57.890     153.122
  C        1.780     -55.987     151.387
  O        2.616     -56.638     152.335
  C        2.533     -54.829     150.740
  O        2.698     -53.764     151.695
  C        3.936     -55.178     150.261
  O        3.896     -55.917     149.049
  C        4.561     -53.791     150.164
  O        4.154     -53.144     148.948
  C        3.929     -53.074     151.375
  N        4.819     -53.021     152.530
  C        5.862     -52.092     152.472
  O        6.002     -51.356     151.497
  N        6.710     -51.988     153.546
  C        6.548     -52.759     154.577
  N        7.375     -52.566     155.639
  C        5.497     -53.790     154.654
  C        4.675     -53.861     153.611
  O        2.976     -58.642     153.960
  O        0.812     -57.224     153.955
  H        4.763     -52.393     148.812
  H        0.494     -57.783     154.708
  H        5.411     -54.418     155.529
  H        3.865     -54.578     153.599
  H        3.643     -52.051     151.102
  H        5.656     -53.802     150.187
  H        4.465     -55.766     151.021
  H        1.927     -54.450     149.904
  H        7.961     -51.738     155.612
  H        0.900     -55.595     151.910
  H        7.141     -52.910     156.561
  H        1.451     -56.714     150.638
  P        5.182     -56.797     148.674
  C        4.595     -58.853     150.141
  O        5.451     -57.743     149.943
  O        6.376     -55.734     148.706
  O        5.085     -57.500     147.361
  H        6.613     -55.462     147.800
  H        5.047     -59.511     150.886
  H        4.463     -59.412     149.211
  H        3.626     -58.513     150.516
  H        1.302     -60.205     150.550
  H        2.375     -60.472     151.903
  H        2.764     -59.260     150.707

 3  4  5  6  7  8  9  10  11  12  13  23  27  28  29  30  32 0
 6-311+G(2d,p)
 ****
 34  35 0
 6-311+G(2d,p)
 ****
 1  2  14  15  16  17  18  19  20  21  22  24  25  26 0
 3-21G
 ****
 31  33  36  37  38  39  40  41  42  43  44  45  46 0
 3-21G
 ****


