%nproc=1
%NoSave
%Mem=1900MB
#P OB98/GEN NMR

erre ene a

0 1
  C       28.245     367.594     257.680
  O       29.040     368.743     257.360
  P       28.595     370.150     257.988
  C       29.452     372.511     257.225
  O       28.911     371.246     256.861
  C       30.484     372.951     256.191
  O       31.728     372.227     256.368
  C       30.071     372.702     254.746
  O       29.089     373.641     254.317
  C       31.413     372.815     254.038
  O       31.759     374.197     253.828
  C       32.377     372.184     255.074
  N       32.779     370.829     254.726
  C       33.727     370.715     253.707
  O       34.191     371.689     253.113
  N       34.116     369.438     253.391
  C       33.632     368.290     253.947
  O       34.023     367.177     253.625
  C       32.598     368.470     254.978
  C       32.220     369.709     255.316
  O       29.740     370.371     259.092
  O       27.198     370.140     258.515
  H       30.606     370.037     258.809
  H       32.700     374.210     253.573
  H       34.811     369.337     252.668
  H       32.170     367.577     255.428
  H       31.457     369.861     256.070
  H       33.288     372.794     255.168
  H       31.416     372.324     253.058
  H       29.682     371.685     254.639
  H       30.686     374.025     256.343
  H       29.929     372.441     258.206
  H       28.638     373.238     257.306
  P       27.563     373.130     254.300
  C       25.331     374.337     253.652
  O       26.726     374.223     253.475
  O       27.138     373.374     255.824
  O       27.414     371.713     253.841
  H       27.432     374.240     256.167
  H       25.015     375.316     253.297
  H       25.055     374.233     254.708
  H       24.823     373.562     253.065
  H       28.654     366.731     257.197
  H       27.242     367.749     257.343
  H       28.246     367.444     258.739

 3  4  5  6  7  8  9  10  11  12  13  24  28  29  30  31  32 0
 6-311+G(2d,p)
 ****
 33  34 0
 6-311+G(2d,p)
 ****
 1  2  14  15  16  17  18  19  20  21  22  23  25  26  27 0
 3-21G
 ****
 35  36  37  38  39  40  41  42  43  44  45 0
 3-21G
 ****


