%nproc=1
%NoSave
%Mem=1900MB
#P OB98/GEN NMR

erre ene a

0 1
  C       90.921    -301.465    -327.484
  O       89.599    -301.544    -326.997
  H       91.548    -301.002    -326.716
  H       90.954    -300.845    -328.384
  H       91.315    -302.461    -327.701
  P       88.501    -302.332    -327.858
  C       87.955    -300.074    -328.985
  O       88.225    -301.462    -329.174
  C       87.875    -299.368    -330.330
  O       89.178    -299.330    -330.955
  C       86.966    -300.061    -331.338
  O       85.598    -299.841    -331.045
  C       87.455    -299.447    -332.635
  O       86.862    -298.157    -332.855
  C       88.972    -299.313    -332.384
  N       89.737    -300.371    -333.044
  C       90.408    -300.011    -334.210
  O       90.385    -298.873    -334.684
  N       91.061    -301.027    -334.864
  C       90.982    -302.351    -334.540
  O       91.364    -303.251    -335.287
  C       90.314    -302.671    -333.266
  C       89.718    -301.677    -332.591
  O       87.280    -302.766    -327.114
  O       89.316    -303.598    -328.431
  H       89.089    -304.387    -327.903
  H       85.929    -298.331    -333.118
  H       91.506    -300.781    -335.730
  H       90.297    -303.696    -332.943
  H       89.194    -301.893    -331.666
  H       89.338    -298.342    -332.745
  H       87.212    -300.074    -333.499
  H       87.182    -301.139    -331.354
  H       87.544    -298.326    -330.163
  H       88.768    -299.641    -328.388
  H       87.015    -299.970    -328.434
  P       84.517    -301.002    -331.295
  C       83.715    -299.852    -333.452
  O       84.200    -301.062    -332.869
  O       83.314    -300.955    -330.416
  O       85.348    -302.362    -331.056
  H       84.845    -302.924    -330.435
  H       83.538    -300.005    -334.496
  H       84.442    -299.077    -333.323
  H       82.801    -299.567    -332.974

 6  7  8  9  10  11  12  13  14  15  16  27  31  32  33  34  35 0
 6-311+G(2d,p)
 ****
 36  37 0
 6-311+G(2d,p)
 ****
 1  2  3  4  5  17  18  19  20  21  22  23  24  25 0
 3-21G
 ****
 26  28  29  30  38  39  40  41  42  43  44  45 0
 3-21G
 ****


