%nproc=1
%NoSave
%Mem=1900MB
#P OB98/GEN NMR

erre ene a

0 1
  C      617.101     209.840     324.822
  O      617.210     209.407     323.484
  P      615.927     209.436     322.514
  C      616.456     206.985     321.926
  O      615.457     207.913     322.347
  C      616.313     205.677     322.696
  O      616.487     205.891     324.119
  C      614.940     205.026     322.576
  O      614.552     204.553     321.306
  C      614.986     204.020     323.712
  O      615.687     202.840     323.337
  C      615.786     204.805     324.788
  N      614.921     205.298     325.862
  C      614.667     204.410     326.893
  O      615.118     203.264     326.933
  N      613.835     204.863     327.889
  C      613.206     206.074     327.913
  O      612.435     206.404     328.807
  C      613.501     206.968     326.791
  C      614.333     206.548     325.826
  O      616.128     210.175     321.230
  O      614.776     210.052     323.442
  H      615.592     202.198     324.072
  H      614.583     209.533     324.245
  H      613.617     204.222     328.632
  H      613.034     207.948     326.786
  H      614.564     207.194     324.980
  H      616.549     204.162     325.231
  H      613.979     203.715     324.022
  H      614.187     205.784     322.848
  H      617.111     204.996     322.368
  H      617.444     207.413     322.128
  H      616.378     206.825     320.847
  P      613.166     204.931     320.605
  C      612.443     202.474     320.185
  O      612.151     203.709     320.802
  O      613.252     205.544     319.237
  O      612.573     206.022     321.627
  H      612.034     206.666     321.130
  H      611.629     201.774     320.398
  H      613.372     202.059     320.591
  H      612.537     202.602     319.105
  H      618.051     209.747     325.305
  H      616.380     209.238     325.334
  H      616.789     210.863     324.841

 3  4  5  6  7  8  9  10  11  12  13  23  28  29  30  31  32 0
 6-311+G(2d,p)
 ****
 33  34 0
 6-311+G(2d,p)
 ****
 1  2  14  15  16  17  18  19  20  21  22  24  25  26  27 0
 3-21G
 ****
 35  36  37  38  39  40  41  42  43  44  45 0
 3-21G
 ****


