%nproc=1
%NoSave
%Mem=1900MB
#P OB98/GEN NMR

erre ene a

0 1
  C      531.967    -832.969      16.619
  O      531.969    -832.462      17.935
  H      532.973    -833.345      16.391
  H      531.715    -832.186      15.900
  H      531.261    -833.801      16.527
  P      530.620    -831.788      18.494
  C      531.842    -829.516      18.491
  O      530.683    -830.234      18.102
  C      531.778    -828.073      17.975
  O      530.480    -827.535      18.344
  C      532.869    -827.170      18.579
  O      533.643    -826.481      17.602
  C      532.103    -826.337      19.596
  O      532.683    -825.082      19.887
  C      530.687    -826.270      18.995
  N      529.638    -826.023      19.980
  C      529.567    -824.754      20.534
  O      530.297    -823.805      20.243
  N      528.580    -824.559      21.475
  C      527.689    -825.504      21.896
  O      526.826    -825.268      22.729
  C      527.831    -826.837      21.283
  C      528.789    -827.037      20.373
  O      530.316    -832.059      19.932
  O      529.471    -832.356      17.537
  H      532.915    -824.656      19.042
  H      528.988    -833.068      17.997
  H      528.516    -823.642      21.864
  H      527.151    -827.610      21.610
  H      528.915    -828.008      19.906
  H      530.641    -825.478      18.250
  H      532.062    -826.893      20.546
  H      533.619    -827.781      19.118
  H      531.835    -828.092      16.873
  H      532.716    -830.028      18.074
  H      531.926    -829.516      19.586
  P      534.961    -827.064      16.914
  C      536.591    -826.497      18.895
  O      535.977    -827.478      18.079
  O      535.520    -826.250      15.797
  O      534.476    -828.474      16.306
  H      535.003    -828.622      15.485
  H      537.230    -826.975      19.608
  H      535.837    -825.939      19.410
  H      537.170    -825.836      18.284

 6  7  8  9  10  11  12  13  14  15  16  26  31  32  33  34  35 0
 6-311+G(2d,p)
 ****
 36  37 0
 6-311+G(2d,p)
 ****
 1  2  3  4  5  17  18  19  20  21  22  23  24  25 0
 3-21G
 ****
 27  28  29  30  38  39  40  41  42  43  44  45 0
 3-21G
 ****


