%nproc=1
%NoSave
%Mem=1900MB
#P OB98/GEN NMR

erre ene a

0 1
  C      125.340    -118.629     -35.480
  O      126.060    -119.255     -34.441
  P      125.508    -120.578     -33.727
  C      125.010    -119.525     -31.428
  O      125.832    -120.430     -32.160
  C      125.344    -119.592     -29.934
  O      124.893    -120.878     -29.409
  C      126.856    -119.471     -29.654
  O      127.205    -118.464     -28.700
  C      127.243    -120.891     -29.271
  O      128.443    -120.982     -28.526
  C      125.963    -121.385     -28.586
  N      125.925    -122.840     -28.455
  C      126.848    -123.423     -27.593
  O      127.676    -122.800     -26.934
  N      126.841    -124.790     -27.544
  C      126.104    -125.616     -28.338
  O      126.219    -126.833     -28.312
  C      125.174    -124.942     -29.261
  C      125.108    -123.609     -29.261
  O      125.961    -121.868     -34.328
  O      123.918    -120.373     -33.757
  H      129.181    -120.746     -29.121
  H      123.601    -119.578     -33.298
  H      127.506    -125.228     -26.923
  H      124.584    -125.570     -29.910
  H      124.433    -123.084     -29.931
  H      125.845    -120.947     -27.593
  H      127.400    -121.455     -30.198
  H      127.402    -119.179     -30.560
  H      124.786    -118.795     -29.431
  H      123.964    -119.807     -31.574
  H      125.136    -118.511     -31.819
  P      128.094    -117.169     -29.012
  C      129.948    -118.082     -27.434
  O      129.142    -116.986     -27.818
  O      127.326    -115.941     -29.374
  O      129.016    -117.638     -30.238
  H      129.242    -116.866     -30.786
  H      130.198    -117.982     -26.373
  H      130.873    -118.071     -28.013
  H      129.433    -119.036     -27.586
  H      125.877    -117.768     -35.818
  H      124.378    -118.330     -35.118
  H      125.218    -119.314     -36.293

 3  4  5  6  7  8  9  10  11  12  13  23  28  29  30  31  32 0
 6-311+G(2d,p)
 ****
 33  34 0
 6-311+G(2d,p)
 ****
 1  2  14  15  16  17  18  19  20  21  22  24  25  26  27 0
 3-21G
 ****
 35  36  37  38  39  40  41  42  43  44  45 0
 3-21G
 ****


