%nproc=1
%NoSave
%Mem=1900MB
#P OB98/GEN NMR

erre ene a

0 1
  C       49.220     169.034     -45.568
  O       49.822     170.153     -44.943
  H       48.242     169.335     -45.958
  H       49.078     168.229     -44.841
  H       49.840     168.685     -46.398
  P       51.265     169.908     -44.280
  C       52.164     168.417     -42.353
  O       51.070     168.726     -43.209
  C       51.781     167.306     -41.381
  O       50.823     167.787     -40.409
  C       51.156     166.082     -42.035
  O       52.152     165.211     -42.552
  C       50.392     165.474     -40.867
  O       51.262     164.705     -40.011
  C       49.869     166.722     -40.142
  N       45.154     167.564     -38.545
  C       46.285     167.208     -37.839
  N       46.121     166.993     -36.511
  N       47.466     167.066     -38.378
  C       47.470     167.280     -39.716
  C       46.421     167.652     -40.527
  C       45.125     167.839     -39.908
  O       44.099     168.215     -40.468
  N       46.826     167.791     -41.831
  C       48.104     167.467     -41.814
  N       48.539     167.131     -40.556
  O       51.477     171.204     -43.360
  O       52.390     169.730     -45.242
  H       51.654     163.980     -40.523
  H       52.430     171.407     -43.310
  H       44.275     167.677     -38.071
  H       48.751     167.456     -42.679
  H       49.837     166.583     -39.053
  H       49.607     164.792     -41.207
  H       45.217     166.764     -36.120
  H       50.445     166.378     -42.820
  H       46.940     166.712     -35.991
  H       52.689     167.026     -40.828
  H       52.438     169.316     -41.786
  H       53.019     168.104     -42.962
  P       51.883     164.535     -43.984
  C       50.419     162.525     -44.769
  O       51.114     163.154     -43.698
  O       53.339     164.055     -44.444
  O       51.246     165.433     -44.989
  H       53.345     163.877     -45.406
  H       49.964     161.623     -44.418
  H       51.108     162.294     -45.555
  H       49.663     163.185     -45.140

 6  7  8  9  10  11  12  13  14  15  26  29  33  34 0
 6-311+G(2d,p)
 ****
 36  38  39  40  41 0
 6-311+G(2d,p)
 ****
 1  2  3  4  5  16  17  18  19  20  21  22  23  24  25 0
 3-21G
 ****
 27  28  30  31  32  35  37  42  43  44  45  46  47 0
 3-21G
 ****
 48  49 0
 3-21G
 ****


