%nproc=1
%NoSave
%Mem=1900MB
#P OB98/GEN NMR

erre ene a

0 1
  C     -238.594    -269.021    -367.072
  O     -238.054    -270.347    -366.962
  P     -238.455    -271.382    -368.128
  C     -240.944    -271.774    -367.524
  O     -240.024    -271.182    -368.420
  C     -242.283    -271.008    -367.496
  O     -242.944    -271.105    -368.794
  C     -243.265    -271.506    -366.431
  O     -243.993    -270.355    -365.950
  C     -244.192    -272.406    -367.244
  O     -245.396    -272.733    -366.580
  C     -244.292    -271.595    -368.521
  N     -247.685    -271.536    -372.339
  C     -247.427    -270.647    -371.350
  N     -246.507    -270.736    -370.363
  C     -245.806    -271.894    -370.471
  C     -245.967    -272.886    -371.422
  C     -246.961    -272.689    -372.393
  N     -247.259    -273.592    -373.389
  N     -245.082    -273.942    -371.182
  C     -244.468    -273.586    -370.064
  N     -244.806    -272.341    -369.643
  O     -238.369    -272.805    -367.421
  O     -237.575    -271.282    -369.330
  H     -245.886    -271.920    -366.360
  H     -237.534    -273.243    -367.637
  H     -248.030    -269.749    -371.352
  H     -243.754    -274.210    -369.527
  H     -244.943    -270.707    -368.391
  H     -243.674    -273.366    -367.445
  H     -242.783    -272.016    -365.583
  H     -242.060    -269.944    -367.324
  H     -240.524    -271.790    -366.512
  H     -248.003    -273.357    -374.030
  H     -246.764    -274.459    -373.450
  H     -241.106    -272.823    -367.808
  P     -243.466    -269.618    -364.626
  C     -244.643    -270.617    -362.578
  O     -243.545    -270.734    -363.470
  O     -244.744    -268.717    -364.272
  O     -242.193    -268.855    -364.757
  H     -245.567    -269.242    -364.280
  H     -244.617    -271.492    -361.903
  H     -245.589    -270.629    -363.123
  H     -244.545    -269.705    -361.980
  H     -238.259    -268.430    -366.245
  H     -239.663    -269.070    -367.066
  H     -238.262    -268.575    -367.986

 3  4  5  6  7  8  9  10  11  12  22  25  29  30  31  32 0
 6-311+G(2d,p)
 ****
 33  36  37 0
 6-311+G(2d,p)
 ****
 1  2  13  14  15  16  17  18  19  20  21  23  24  26 0
 3-21G
 ****
 27  28  34  35  38  39  40  41  42  43  44  45  46  47  48 0
 3-21G
 ****


