%nproc=1
%NoSave
%Mem=1900MB
#P OB98/GEN NMR

erre ene a

0 1
  C     -158.353    -219.583      13.917
  O     -159.493    -219.390      13.074
  P     -159.360    -218.298      11.907
  C     -159.163    -215.717      11.757
  O     -159.506    -216.838      12.562
  C     -159.006    -214.449      12.602
  O     -160.194    -214.215      13.413
  C     -157.814    -214.495      13.565
  O     -157.297    -213.162      13.682
  C     -158.453    -214.886      14.884
  O     -157.618    -214.557      15.990
  C     -159.768    -214.114      14.789
  N     -162.191    -213.380      19.222
  C     -161.224    -212.677      18.593
  N     -160.614    -212.953      17.420
  C     -161.133    -214.067      16.869
  C     -162.112    -214.892      17.396
  C     -162.654    -214.511      18.636
  N     -163.620    -215.240      19.292
  N     -162.343    -215.966      16.559
  C     -161.513    -215.793      15.552
  N     -160.783    -214.644      15.677
  O     -160.720    -218.480      11.080
  O     -158.162    -218.489      11.036
  H     -157.977    -215.003      16.787
  H     -160.533    -218.907      10.224
  H     -160.892    -211.776      19.102
  H     -161.395    -216.465      14.715
  H     -159.648    -213.050      15.035
  H     -158.636    -215.969      14.901
  H     -157.014    -215.179      13.267
  H     -158.898    -213.594      11.924
  H     -159.938    -215.551      11.002
  H     -163.934    -214.914      20.193
  H     -163.938    -216.108      18.889
  H     -158.247    -215.944      11.201
  P     -155.930    -212.855      12.905
  C     -153.464    -212.601      13.671
  O     -154.748    -213.123      13.953
  O     -155.938    -211.261      12.741
  O     -155.804    -213.554      11.591
  H     -155.401    -211.001      11.968
  H     -153.030    -212.217      14.600
  H     -153.499    -211.787      12.939
  H     -152.828    -213.402      13.288
  H     -158.573    -220.333      14.648
  H     -158.114    -218.664      14.410
  H     -157.520    -219.897      13.324

 3  4  5  6  7  8  9  10  11  12  22  25  29  30  31  32 0
 6-311+G(2d,p)
 ****
 33  36  37 0
 6-311+G(2d,p)
 ****
 1  2  13  14  15  16  17  18  19  20  21  23  24  26 0
 3-21G
 ****
 27  28  34  35  38  39  40  41  42  43  44  45  46  47  48 0
 3-21G
 ****


