%nproc=1
%NoSave
%Mem=1900MB
#P OB98/GEN NMR

erre ene a

0 1
  C      -95.323    -430.452    -225.552
  O      -95.205    -429.035    -225.705
  P      -94.279    -428.527    -226.917
  C      -92.042    -428.732    -225.619
  O      -92.826    -429.181    -226.719
  C      -90.837    -429.650    -225.386
  O      -90.053    -429.185    -224.245
  C      -91.219    -431.114    -225.110
  O      -90.198    -431.925    -225.707
  C      -91.152    -431.179    -223.595
  O      -91.104    -432.507    -223.092
  C      -89.918    -430.320    -223.349
  N      -87.312    -431.031    -219.019
  C      -87.237    -431.626    -220.233
  N      -87.968    -431.387    -221.336
  C      -88.854    -430.402    -221.103
  C      -89.054    -429.696    -219.927
  C      -88.226    -430.044    -218.842
  N      -88.311    -429.456    -217.601
  N      -90.078    -428.774    -220.072
  C      -90.533    -428.980    -221.299
  N      -89.773    -429.885    -221.979
  O      -94.057    -426.975    -226.596
  O      -94.885    -428.751    -228.263
  H      -90.943    -432.490    -222.130
  H      -94.658    -426.427    -227.129
  H      -86.484    -432.410    -220.318
  H      -91.397    -428.501    -221.732
  H      -88.988    -430.844    -223.624
  H      -92.047    -430.699    -223.171
  H      -92.193    -431.398    -225.526
  H      -90.188    -429.592    -226.272
  H      -92.656    -428.703    -224.712
  H      -87.679    -429.777    -216.885
  H      -88.986    -428.729    -217.423
  H      -91.723    -427.695    -225.804
  P      -90.400    -432.449    -227.207
  C      -90.498    -434.954    -226.641
  O      -91.236    -433.817    -227.044
  O      -88.933    -433.016    -227.523
  O      -90.901    -431.451    -228.197
  H      -88.624    -433.607    -226.812
  H      -91.193    -435.791    -226.488
  H      -89.977    -434.752    -225.703
  H      -89.778    -435.232    -227.414
  H      -95.959    -430.669    -224.719
  H      -94.355    -430.874    -225.381
  H      -95.743    -430.873    -226.441

 3  4  5  6  7  8  9  10  11  12  22  25  29  30  31  32 0
 6-311+G(2d,p)
 ****
 33  36  37 0
 6-311+G(2d,p)
 ****
 1  2  13  14  15  16  17  18  19  20  21  23  24  26 0
 3-21G
 ****
 27  28  34  35  38  39  40  41  42  43  44  45  46  47  48 0
 3-21G
 ****


