%nproc=1
%NoSave
%Mem=1900MB
#P OB98/GEN NMR

erre ene a

0 1
  C     -136.253     153.083      92.528
  O     -135.527     152.234      91.660
  H     -136.134     152.720      93.552
  H     -137.315     153.062      92.267
  H     -135.872     154.107      92.468
  P     -135.421     152.694      90.124
  C     -133.405     154.312      90.588
  O     -133.903     153.167      89.918
  C     -131.910     154.487      90.317
  O     -131.547     155.864      90.592
  C     -131.020     153.589      91.177
  O     -129.889     153.193      90.398
  C     -130.562     154.514      92.292
  O     -129.352     154.070      92.897
  C     -130.467     155.856      91.547
  N     -130.538     157.001      92.451
  C     -129.458     157.889      92.427
  O     -128.501     157.681      91.679
  N     -129.464     158.966      93.275
  C     -130.434     159.111      94.124
  N     -130.369     160.185      94.955
  C     -131.572     158.175      94.217
  C     -131.565     157.160      93.353
  O     -136.249     154.064      90.135
  O     -135.912     151.683      89.143
  H     -128.633     154.118      92.229
  H     -136.039     154.636      90.891
  H     -132.350     158.332      94.948
  H     -132.365     156.430      93.345
  H     -129.525     155.918      90.986
  H     -131.328     154.569      93.075
  H     -131.543     152.704      91.547
  H     -131.727     154.318      89.250
  H     -129.560     160.788      94.874
  H     -133.571     154.225      91.666
  H     -131.037     160.366      95.690
  H     -133.962     155.183      90.227
  P     -129.918     151.793      89.622
  C     -130.941     152.579      87.381
  O     -129.796     152.059      88.046
  O     -130.998     150.850      90.027
  O     -128.476     151.169      89.973
  H     -128.599     150.215      90.142
  H     -130.722     152.707      86.342
  H     -131.204     153.524      87.809
  H     -131.758     151.897      87.492

 6  7  8  9  10  11  12  13  14  15  16  26  30  31  32  33  35 0
 6-311+G(2d,p)
 ****
 37  38 0
 6-311+G(2d,p)
 ****
 1  2  3  4  5  17  18  19  20  21  22  23  24  25 0
 3-21G
 ****
 27  28  29  34  36  39  40  41  42  43  44  45  46 0
 3-21G
 ****


