%nproc=1
%NoSave
%Mem=1900MB
#P OB98/GEN NMR

erre ene a

0 1
  C      280.001     353.887       7.594
  O      279.241     352.691       7.670
  P      279.964     351.304       7.328
  C      282.227     350.206       7.969
  O      281.488     351.410       7.820
  C      283.662     350.378       7.464
  O      283.639     350.823       6.082
  C      284.473     351.406       8.259
  O      285.847     350.997       8.306
  C      284.400     352.652       7.401
  O      285.490     353.535       7.671
  C      284.415     352.036       6.001
  N      285.213     356.280       3.380
  C      286.104     355.525       4.118
  N      287.357     356.016       4.238
  N      285.798     354.381       4.679
  C      284.506     354.023       4.477
  C      283.535     354.676       3.752
  C      283.887     355.945       3.148
  O      283.141     356.677       2.505
  N      282.358     353.980       3.747
  C      282.591     352.920       4.497
  N      283.873     352.924       4.993
  O      280.084     351.353       5.732
  O      279.227     350.089       7.770
  H      285.577     353.584       8.645
  H      279.427     350.748       5.331
  H      285.499     357.161       2.980
  H      281.876     352.148       4.733
  H      285.430     351.760       5.695
  H      283.469     353.189       7.596
  H      287.638     356.922       3.890
  H      284.109     351.578       9.281
  H      288.016     355.505       4.815
  H      284.160     349.401       7.476
  H      281.739     349.416       7.397
  H      282.236     349.908       9.025
  P      286.650     351.373       9.644
  C      286.374     350.630      12.118
  O      285.773     350.809      10.854
  O      286.465     352.961       9.744
  O      288.088     350.969       9.634
  H      287.201     353.355      10.248
  H      285.891     351.289      12.844
  H      287.452     350.843      12.107
  H      286.234     349.591      12.435
  H      279.381     354.721       7.849
  H      280.373     354.011       6.598
  H      280.823     353.831       8.277

 3  4  5  6  7  8  9  10  11  12  23  26  30  31 0
 6-311+G(2d,p)
 ****
 33  35  36  37  38 0
 6-311+G(2d,p)
 ****
 1  2  13  14  15  16  17  18  19  20  21  22  24  25 0
 3-21G
 ****
 27  28  29  32  34  39  40  41  42  43  44  45  46  47  48  49 0
 3-21G
 ****


