%nproc=1
%NoSave
%Mem=1900MB
#P OB98/GEN NMR

erre ene a

0 1
  C      140.078     436.328     340.758
  O      138.934     435.595     341.150
  H      140.678     436.546     341.645
  H      139.783     437.271     340.291
  H      140.680     435.742     340.058
  P      137.867     435.267     339.992
  C      138.949     433.000     339.279
  O      138.703     434.362     338.962
  C      138.499     432.112     338.126
  O      139.007     430.770     338.289
  C      136.987     431.964     338.004
  O      136.368     433.083     337.392
  C      136.903     430.726     337.133
  O      137.211     431.070     335.771
  C      138.019     429.848     337.748
  N      137.532     428.947     338.793
  C      137.569     427.577     338.504
  O      137.979     427.174     337.415
  N      137.102     426.689     339.445
  C      136.649     427.126     340.577
  N      136.189     426.207     341.467
  C      136.610     428.559     340.932
  C      137.060     429.402     340.002
  O      137.727     436.652     339.205
  O      136.573     434.680     340.443
  H      138.119     431.427     335.764
  H      137.183     436.522     338.392
  H      136.216     428.877     341.884
  H      137.062     430.470     340.192
  H      138.520     429.253     336.973
  H      135.910     430.268     337.134
  H      136.525     431.742     338.974
  H      138.937     432.514     337.199
  H      136.169     425.238     341.174
  H      138.390     432.750     340.188
  H      135.655     426.463     342.290
  H      140.018     432.848     339.461
  P      134.849     432.917     336.898
  C      133.794     433.628     339.165
  O      133.968     432.596     338.202
  O      134.874     431.521     336.118
  O      134.336     434.032     336.038
  H      134.307     431.553     335.324
  H      133.189     433.266     339.970
  H      133.313     434.467     338.706
  H      134.749     433.927     339.543

 6  7  8  9  10  11  12  13  14  15  16  26  30  31  32  33  35 0
 6-311+G(2d,p)
 ****
 37  38 0
 6-311+G(2d,p)
 ****
 1  2  3  4  5  17  18  19  20  21  22  23  24  25 0
 3-21G
 ****
 27  28  29  34  36  39  40  41  42  43  44  45  46 0
 3-21G
 ****


