%nproc=1
%NoSave
%Mem=1900MB
#P OB98/GEN NMR

erre ene a

0 1
  C      255.245    -178.828     120.431
  O      255.927    -177.588     120.377
  P      255.429    -176.344     121.257
  C      254.381    -174.634     119.633
  O      254.148    -175.759     120.478
  C      255.133    -175.047     118.368
  O      254.422    -176.095     117.677
  C      255.310    -173.923     117.355
  O      256.342    -173.043     117.756
  C      255.608    -174.715     116.088
  O      256.991    -175.090     116.019
  C      254.711    -175.963     116.264
  N      253.495    -175.893     115.466
  C      253.573    -176.442     114.180
  O      254.631    -176.920     113.773
  N      252.460    -176.395     113.373
  C      251.377    -175.825     113.808
  N      250.311    -175.794     112.960
  C      251.263    -175.203     115.142
  C      252.351    -175.271     115.912
  O      256.481    -175.343     121.602
  O      254.771    -177.046     122.538
  H      257.502    -174.279     116.221
  H      255.463    -177.406     123.151
  H      250.341    -174.730     115.454
  H      252.355    -174.839     116.907
  H      255.258    -176.871     115.975
  H      255.385    -174.141     115.179
  H      254.360    -173.382     117.232
  H      256.115    -175.440     118.669
  H      250.439    -176.205     112.039
  H      254.978    -173.903     120.187
  H      249.435    -175.345     113.181
  H      253.419    -174.169     119.381
  P      256.447    -171.583     117.100
  C      258.506    -171.152     115.623
  O      257.216    -171.734     115.701
  O      256.969    -170.513     118.007
  O      254.944    -171.265     116.654
  H      254.727    -170.346     116.905
  H      259.040    -171.597     114.778
  H      259.074    -171.337     116.539
  H      258.411    -170.076     115.460
  H      255.725    -179.527     119.779
  H      254.230    -178.690     120.122
  H      255.265    -179.203     121.433

 3  4  5  6  7  8  9  10  11  12  13  23  27  28  29  30  32 0
 6-311+G(2d,p)
 ****
 34  35 0
 6-311+G(2d,p)
 ****
 1  2  14  15  16  17  18  19  20  21  22  24  25  26 0
 3-21G
 ****
 31  33  36  37  38  39  40  41  42  43  44  45  46 0
 3-21G
 ****


