%nproc=1
%NoSave
%Mem=1900MB
#P OB98/GEN NMR

erre ene a

0 1
  C      -56.423      22.645     271.825
  O      -55.231      23.206     271.262
  P      -53.968      22.217     271.143
  C      -52.439      23.434     272.856
  O      -52.643      23.056     271.499
  C      -51.511      24.645     272.977
  O      -50.361      24.454     272.117
  C      -52.149      25.985     272.586
  O      -51.641      27.005     273.457
  C      -51.585      26.248     271.200
  O      -51.617      27.632     270.861
  C      -50.184      25.661     271.356
  N      -47.254      27.508     267.670
  C      -47.599      28.066     268.887
  N      -47.111      29.298     269.145
  N      -48.353      27.466     269.770
  C      -48.742      26.224     269.389
  C      -48.459      25.560     268.217
  C      -47.658      26.255     267.232
  O      -47.362      25.836     266.115
  N      -49.037      24.314     268.194
  C      -49.671      24.228     269.346
  N      -49.530      25.366     270.101
  O      -53.854      21.962     269.566
  O      -54.134      20.937     271.891
  H      -52.555      27.900     270.847
  H      -53.893      21.004     269.380
  H      -46.688      28.023     267.018
  H      -50.266      23.386     269.672
  H      -49.533      26.330     271.931
  H      -52.175      25.698     270.457
  H      -46.471      29.788     268.539
  H      -53.242      25.988     272.604
  H      -47.315      29.704     270.052
  H      -51.140      24.689     274.007
  H      -52.004      22.592     273.402
  H      -53.412      23.655     273.306
  P      -52.693      27.666     274.471
  C      -51.617      30.033     274.549
  O      -51.897      28.829     275.234
  O      -52.885      26.538     275.591
  O      -53.987      28.063     273.837
  H      -53.766      26.618     276.006
  H      -52.165      30.109     273.606
  H      -50.545      30.083     274.343
  H      -51.896      30.876     275.186
  H      -57.189      23.391     271.853
  H      -56.221      22.303     272.819
  H      -56.748      21.822     271.224

 3  4  5  6  7  8  9  10  11  12  23  26  30  31  33  0
 6-311+G(2d,p)
 ****
 35  36  37  38 0
 6-311+G(2d,p)
 ****
 1  2  13  14  15  16  17  18  19  20  21  22  24  25  27  28  29 0
 3-21G
 ****
 32  34  39  40  41  42  43  44  45  46  47  48  49 0
 3-21G
 ****


