%nproc=1
%NoSave
%Mem=1900MB
#P OB98/GEN NMR

erre ene a

0 1
  C     -697.094     412.190      64.655
  O     -698.343     412.710      65.057
  H     -696.317     412.598      65.312
  H     -696.861     412.466      63.626
  H     -697.085     411.092      64.753
  P     -699.607     412.459      64.096
  C     -700.850     412.973      66.293
  O     -700.867     413.071      64.872
  C     -702.264     413.053      66.869
  O     -703.115     412.064      66.240
  C     -702.343     412.742      68.370
  O     -701.760     413.750      69.183
  C     -703.804     412.385      68.544
  O     -704.651     413.510      68.761
  C     -704.150     411.722      67.191
  N     -704.327     410.281      67.304
  C     -705.340     409.862      68.171
  O     -706.039     410.634      68.820
  N     -705.493     408.508      68.295
  C     -704.714     407.553      67.697
  O     -704.871     406.351      67.884
  C     -703.642     408.059      66.820
  C     -703.498     409.376      66.665
  O     -699.801     411.044      63.630
  O     -699.380     413.498      62.902
  H     -704.568     414.097      67.990
  H     -699.933     413.262      62.113
  H     -706.225     408.178      68.908
  H     -703.012     407.324      66.334
  H     -702.719     409.773      66.016
  H     -705.080     412.146      66.793
  H     -703.955     411.718      69.397
  H     -701.768     411.824      68.552
  H     -702.686     414.041      66.647
  H     -700.263     413.817      66.676
  H     -700.368     412.035      66.591
  P     -700.646     413.422      70.280
  C     -699.297     415.477      69.430
  O     -699.810     414.775      70.555
  O     -699.902     412.132      70.138
  O     -701.553     413.309      71.619
  H     -701.138     412.636      72.194
  H     -698.769     416.347      69.762
  H     -700.106     415.772      68.794
  H     -698.630     414.841      68.887

 6  7  8  9  10  11  12  13  14  15  16  26  31  32  33  34  35 0
 6-311+G(2d,p)
 ****
 36  37 0
 6-311+G(2d,p)
 ****
 1  2  3  4  5  17  18  19  20  21  22  23  24  25 0
 3-21G
 ****
 27  28  29  30  38  39  40  41  42  43  44  45 0
 3-21G
 ****


