%nproc=1
%NoSave
%Mem=1900MB
#P OB98/GEN NMR

erre ene a

0 1
  C     -199.690    -285.808    -631.765
  O     -199.003    -286.315    -632.896
  P     -197.467    -285.901    -633.167
  C     -197.027    -284.424    -635.231
  O     -197.466    -284.461    -633.868
  C     -198.133    -284.933    -636.159
  O     -199.362    -284.194    -635.942
  C     -197.829    -284.753    -637.635
  O     -196.851    -285.682    -638.092
  C     -199.209    -284.927    -638.253
  O     -199.549    -286.327    -638.364
  C     -200.112    -284.247    -637.186
  N     -200.546    -282.919    -637.600
  C     -201.801    -282.855    -638.201
  O     -202.439    -283.884    -638.442
  N     -202.307    -281.619    -638.540
  C     -201.571    -280.562    -638.391
  N     -202.131    -279.365    -638.684
  C     -200.169    -280.619    -637.907
  C     -199.737    -281.812    -637.509
  O     -196.646    -286.943    -633.847
  O     -196.890    -285.585    -631.707
  H     -196.056    -286.070    -631.581
  H     -199.142    -286.647    -639.196
  H     -199.568    -279.719    -637.861
  H     -198.738    -281.945    -637.109
  H     -200.990    -284.872    -636.975
  H     -199.286    -284.494    -639.249
  H     -197.476    -283.732    -637.822
  H     -198.317    -285.996    -635.931
  H     -203.095    -279.361    -638.992
  H     -196.139    -285.065    -635.321
  H     -201.779    -278.481    -638.300
  H     -196.740    -283.406    -635.491
  P     -196.017    -285.261    -639.400
  C     -196.494    -286.288    -641.749
  O     -196.971    -285.493    -640.666
  O     -194.927    -286.447    -639.530
  O     -195.361    -283.933    -639.329
  H     -194.078    -286.073    -639.857
  H     -197.347    -286.632    -642.337
  H     -195.942    -287.153    -641.378
  H     -195.847    -285.679    -642.377
  H     -200.689    -286.190    -631.754
  H     -199.718    -284.739    -631.814
  H     -199.182    -286.111    -630.874

 3  4  5  6  7  8  9  10  11  12  13  24  27  28  29  30  32 0
 6-311+G(2d,p)
 ****
 34  35 0
 6-311+G(2d,p)
 ****
 1  2  14  15  16  17  18  19  20  21  22  23  25  26 0
 3-21G
 ****
 31  33  36  37  38  39  40  41  42  43  44  45  46 0
 3-21G
 ****


