%nproc=1
%NoSave
%Mem=1900MB
#P OB98/GEN NMR

erre ene a

0 1
  C     -899.140     745.526    -725.611
  O     -897.960     745.392    -726.366
  H     -899.240     744.661    -724.952
  H     -900.000     745.562    -726.277
  H     -899.120     746.433    -724.991
  P     -897.330     746.684    -727.069
  C     -895.830     747.328    -725.077
  O     -896.910     747.714    -725.908
  C     -894.670     748.333    -725.145
  O     -894.280     748.541    -726.524
  C     -895.060     749.711    -724.610
  O     -894.970     749.854    -723.200
  C     -894.070     750.614    -725.328
  O     -892.820     750.682    -724.607
  C     -893.880     749.915    -726.666
  N     -894.250     753.795    -729.976
  C     -893.330     753.594    -728.968
  N     -892.420     754.578    -728.789
  N     -893.310     752.537    -728.208
  C     -894.320     751.668    -728.441
  C     -895.320     751.774    -729.396
  C     -895.290     752.933    -730.275
  O     -896.100     753.153    -731.172
  N     -896.180     750.711    -729.336
  C     -895.770     750.014    -728.306
  N     -894.620     750.552    -727.742
  O     -898.610     747.405    -727.722
  O     -896.280     746.415    -728.099
  H     -892.460     749.774    -724.534
  H     -898.330     747.944    -728.491
  H     -894.200     754.616    -730.559
  H     -896.230     749.105    -727.932
  H     -892.820     749.916    -726.974
  H     -894.440     751.646    -725.404
  H     -892.470     755.466    -729.268
  H     -896.070     749.975    -724.931
  H     -891.900     754.597    -727.901
  H     -893.810     747.923    -724.616
  H     -895.490     746.346    -725.425
  H     -896.170     747.206    -724.042
  P     -896.020     750.779    -722.410
  C     -897.760     748.874    -722.097
  O     -897.470     750.136    -722.653
  O     -896.040     752.107    -723.301
  O     -895.660     751.054    -720.995
  H     -895.430     752.778    -722.921
  H     -898.761     748.593    -722.352
  H     -897.663     748.922    -721.032
  H     -897.076     748.148    -722.485

 6  7  8  9  10  11  12  13  14  15  26  29  33  34 0
 6-311+G(2d,p)
 ****
 36  38  39  40  41 0
 6-311+G(2d,p)
 ****
 1  2  3  4  5  16  17  18  19  20  21  22  23  24  25 0
 3-21G
 ****
 27  28  30  31  32  35  37  42  43  44  45  46  47 0
 3-21G
 ****
 48  49 0
 3-21G
 ****


