%nproc=1
%NoSave
%Mem=1900MB
#P OB98/GEN NMR

erre ene a

0 1
  C      -98.289    -972.633     221.733
  O      -97.703    -973.429     222.741
  H      -97.489    -972.128     221.179
  H      -98.940    -971.872     222.171
  H      -98.857    -973.250     221.036
  P      -98.679    -974.266     223.706
  C      -98.198    -976.516     222.510
  O      -99.172    -975.525     222.829
  C      -98.294    -977.683     223.476
  O      -99.670    -978.061     223.665
  C      -97.554    -978.936     223.000
  O      -96.166    -978.830     223.297
  C      -98.256    -979.999     223.846
  O      -97.768    -979.952     225.196
  C      -99.716    -979.521     223.785
  N     -102.252    -983.542     222.016
  C     -101.546    -983.392     223.194
  N     -101.455    -984.475     223.981
  N     -100.948    -982.279     223.543
  C     -101.054    -981.298     222.618
  C     -101.730    -981.328     221.419
  C     -102.425    -982.550     221.063
  O     -103.094    -982.722     220.033
  N     -101.571    -980.156     220.709
  C     -100.842    -979.409     221.502
  N     -100.496    -980.051     222.677
  O      -99.796    -973.504     224.351
  O      -97.696    -974.924     224.779
  H      -96.815    -980.168     225.151
  H      -97.613    -974.365     225.573
  H     -102.675    -984.424     221.801
  H     -100.541    -978.386     221.299
  H     -100.264    -979.750     224.700
  H      -98.093    -981.010     223.474
  H     -101.636    -985.411     223.643
  H      -97.747    -979.149     221.953
  H     -100.883    -984.402     224.830
  H      -97.921    -977.347     224.454
  H      -97.216    -976.041     222.571
  H      -98.352    -976.865     221.479
  P      -95.058    -979.012     222.142
  C      -94.566    -976.490     221.836
  O      -95.142    -977.675     221.272
  O      -95.197    -980.282     221.352
  O      -93.655    -978.863     222.900
  H      -93.313    -979.716     223.262
  H      -94.690    -975.674     221.155
  H      -93.523    -976.650     222.014
  H      -95.054    -976.261     222.760

 6  7  8  9  10  11  12  13  14  15  26  29  33  34 0
 6-311+G(2d,p)
 ****
 36  38  39  40  41 0
 6-311+G(2d,p)
 ****
 1  2  3  4  5  16  17  18  19  20  21  22  23  24  25 0
 3-21G
 ****
 27  28  30  31  32  35  37  42  43  44  45  46  47 0
 3-21G
 ****
 48  49 0
 3-21G
 ****


