%nproc=1
%NoSave
%Mem=1900MB
#P OB98/GEN NMR

erre ene a

0 1
  C      132.304     240.938    -273.462
  O      132.528     241.917    -272.469
  H      132.017     241.440    -274.391
  H      131.487     240.278    -273.156
  H      133.212     240.353    -273.639
  P      133.047     241.398    -271.042
  C      130.696     241.396    -269.940
  O      131.809     240.620    -270.366
  C      129.409     240.573    -270.004
  O      129.624     239.311    -269.298
  C      128.188     241.257    -269.366
  O      127.025     240.889    -270.126
  C      128.097     240.582    -268.002
  O      126.794     240.686    -267.432
  C      128.521     239.163    -268.375
  N      126.736     236.978    -264.204
  C      126.078     237.648    -265.220
  N      124.736     237.751    -265.107
  N      126.683     238.169    -266.257
  C      128.027     237.960    -266.255
  C      128.794     237.323    -265.313
  C      128.115     236.772    -264.155
  O      128.647     236.186    -263.216
  N      130.124     237.346    -265.659
  C      130.153     237.995    -266.808
  N      128.906     238.386    -267.213
  O      133.154     242.749    -270.190
  O      134.337     240.645    -271.064
  H      126.796     240.178    -266.591
  H      134.060     243.109    -270.241
  H      126.224     236.606    -263.424
  H      131.044     238.210    -267.385
  H      127.721     238.606    -268.878
  H      128.812     241.041    -267.308
  H      124.196     237.331    -264.366
  H      128.262     242.348    -269.305
  H      124.232     238.202    -265.865
  H      129.211     240.310    -271.050
  H      130.598     242.267    -270.597
  H      130.869     241.739    -268.911
  P      126.277     242.034    -270.962
  C      124.535     242.540    -269.097
  O      125.585     243.035    -269.918
  O      125.031     241.254    -271.594
  O      127.124     242.675    -272.014
  H      124.764     241.684    -272.428
  H      124.181     243.323    -268.460
  H      124.901     241.732    -268.499
  H      123.733     242.192    -269.714

 6  7  8  9  10  11  12  13  14  15  26  29  33  34 0
 6-311+G(2d,p)
 ****
 36  38  39  40  41 0
 6-311+G(2d,p)
 ****
 1  2  3  4  5  16  17  18  19  20  21  22  23  24  25 0
 3-21G
 ****
 27  28  30  31  32  35  37  42  43  44  45  46  47 0
 3-21G
 ****
 48  49 0
 3-21G
 ****


