%nproc=1
%NoSave
%Mem=1900MB
#P OB98/GEN NMR

erre ene a

0 1
  C     -468.613    -503.607     172.951
  O     -467.959    -504.729     172.393
  P     -466.448    -505.060     172.822
  C     -465.856    -505.440     170.316
  O     -465.813    -505.936     171.633
  C     -466.200    -506.555     169.312
  O     -465.155    -507.552     169.382
  C     -467.503    -507.293     169.603
  O     -467.912    -507.978     168.416
  C     -467.067    -508.301     170.648
  O     -467.974    -509.392     170.754
  C     -465.635    -508.663     170.178
  N     -464.738    -508.897     171.326
  C     -464.335    -510.208     171.554
  O     -464.633    -511.142     170.806
  N     -463.646    -510.428     172.720
  C     -463.378    -509.487     173.671
  O     -463.053    -509.754     174.822
  C     -463.614    -508.093     173.264
  C     -464.296    -507.861     172.138
  O     -466.646    -506.120     174.007
  O     -465.640    -503.891     173.246
  H     -467.615    -509.988     171.462
  H     -466.599    -505.667     174.871
  H     -463.479    -511.405     172.952
  H     -463.281    -507.306     173.928
  H     -464.532    -506.842     171.845
  H     -465.635    -509.565     169.561
  H     -467.030    -507.806     171.624
  H     -468.312    -506.651     169.962
  H     -466.209    -506.141     168.300
  H     -464.890    -504.984     170.067
  H     -466.606    -504.644     170.234
  P     -469.235    -507.470     167.659
  C     -470.588    -509.525     168.394
  O     -470.085    -508.778     167.306
  O     -469.022    -506.509     166.542
  O     -470.090    -506.813     168.851
  H     -470.769    -506.215     168.481
  H     -471.512    -510.020     168.088
  H     -470.808    -508.881     169.256
  H     -469.860    -510.289     168.681
  H     -469.605    -503.539     172.556
  H     -468.070    -502.719     172.705
  H     -468.659    -503.714     174.015

 3  4  5  6  7  8  9  10  11  12  13  23  28  29  30  31  32 0
 6-311+G(2d,p)
 ****
 33  34 0
 6-311+G(2d,p)
 ****
 1  2  14  15  16  17  18  19  20  21  22  24  25  26  27 0
 3-21G
 ****
 35  36  37  38  39  40  41  42  43  44  45 0
 3-21G
 ****


