%nproc=1
%NoSave
%Mem=1900MB
#P OB98/GEN NMR

erre ene a

0 1
  C      101.905     -77.214     -15.318
  O      103.068     -77.982     -15.526
  P      103.875     -78.009     -16.904
  C      102.846     -80.324     -17.558
  O      103.105     -78.973     -17.928
  C      101.899     -80.997     -18.562
  O      100.692     -80.196     -18.668
  C      102.518     -81.059     -19.967
  O      102.294     -82.290     -20.649
  C      101.993     -79.792     -20.628
  O      102.041     -79.825     -22.047
  C      100.602     -79.676     -20.012
  N       98.140     -75.996     -22.509
  C       98.280     -77.327     -22.844
  N       97.870     -77.677     -24.083
  N       98.811     -78.220     -22.045
  C       99.278     -77.701     -20.885
  C       99.194     -76.399     -20.444
  C       98.574     -75.432     -21.322
  O       98.531     -74.218     -21.114
  N       99.837     -76.224     -19.248
  C      100.342     -77.412     -18.977
  N      100.058     -78.332     -19.960
  O      105.362     -78.131     -16.805
  O      103.545     -76.548     -17.506
  H      101.503     -80.584     -22.342
  H      104.339     -76.253     -17.999
  H       97.795     -75.339     -23.202
  H      100.944     -77.652     -18.108
  H       99.870     -80.275     -20.555
  H      102.633     -78.963     -20.310
  H       97.597     -76.987     -24.767
  H      103.611     -81.001     -19.908
  H       98.189     -78.575     -24.439
  H      101.613     -81.985     -18.183
  H      102.376     -80.285     -16.566
  H      103.777     -80.885     -17.468
  P      103.035     -82.872     -21.936
  C      101.377     -82.050     -23.714
  O      102.687     -81.937     -23.192
  O      102.265     -84.229     -22.281
  O      104.494     -83.136     -21.751
  H      102.908     -84.908     -22.567
  H      101.354     -81.587     -24.706
  H      100.674     -81.523     -23.061
  H      101.081     -83.099     -23.802
  H      101.552     -77.365     -14.319
  H      101.149     -77.516     -16.013
  H      102.131     -76.178     -15.464

 3  4  5  6  7  8  9  10  11  12  23  26  30  31 0
 6-311+G(2d,p)
 ****
 33  35  36  37  38 0
 6-311+G(2d,p)
 ****
 1  2  13  14  15  16  17  18  19  20  21  22  24  25 0
 3-21G
 ****
 27  28  29  32  34  39  40  41  42  43  44  45  46  47  48  49 0
 3-21G
 ****


