%nproc=1
%NoSave
%Mem=1900MB
#P OB98/GEN NMR

erre ene a

0 1
  C     -125.681     527.785     182.844
  O     -124.714     528.730     183.300
  P     -124.163     529.959     182.446
  C     -124.645     531.792     184.258
  O     -123.682     531.100     183.458
  C     -124.266     531.813     185.754
  O     -124.528     530.513     186.343
  C     -122.764     532.069     185.918
  O     -122.264     533.392     185.891
  C     -122.378     531.288     187.177
  O     -122.406     532.099     188.351
  C     -123.445     530.193     187.247
  N     -122.247     525.528     188.968
  C     -122.717     526.623     189.680
  N     -122.845     526.473     191.017
  N     -123.018     527.754     189.106
  C     -122.775     527.801     187.777
  C     -122.285     526.792     186.980
  C     -122.000     525.506     187.600
  O     -121.591     524.511     187.039
  N     -122.133     527.201     185.682
  C     -122.502     528.465     185.698
  N     -122.908     528.867     186.957
  O     -125.019     530.369     181.303
  O     -122.781     529.391     181.838
  H     -122.184     531.529     189.112
  H     -122.664     529.816     180.956
  H     -122.047     524.667     189.447
  H     -122.502     529.128     184.844
  H     -123.883     530.131     188.250
  H     -121.349     530.909     187.089
  H     -122.516     525.665     191.515
  H     -122.257     531.561     185.089
  H     -122.977     527.333     191.544
  H     -124.888     532.522     186.301
  H     -125.603     531.277     184.121
  H     -124.777     532.810     183.903
  P     -120.719     533.822     185.897
  C     -120.587     535.075     183.671
  O     -120.569     535.190     185.081
  O     -120.012     532.764     184.923
  O     -120.066     533.828     187.249
  H     -119.041     532.766     185.062
  H     -120.195     535.987     183.230
  H     -121.618     534.939     183.329
  H     -119.990     534.225     183.334
  H     -125.870     527.067     183.615
  H     -125.308     527.285     181.975
  H     -126.590     528.294     182.600

 3  4  5  6  7  8  9  10  11  12  23  26  30  31 0
 6-311+G(2d,p)
 ****
 33  35  36  37  38 0
 6-311+G(2d,p)
 ****
 1  2  13  14  15  16  17  18  19  20  21  22  24  25 0
 3-21G
 ****
 27  28  29  32  34  39  40  41  42  43  44  45  46  47  48  49 0
 3-21G
 ****


