%nproc=1
%NoSave
%Mem=1900MB
#P OB98/GEN NMR

erre ene a

0 1
  C     -137.459    -765.551    -315.012
  O     -138.456    -764.553    -314.996
  P     -139.035    -764.000    -313.603
  C     -138.704    -761.459    -313.872
  O     -139.627    -762.537    -313.913
  C     -139.143    -760.351    -314.823
  O     -139.122    -760.805    -316.204
  C     -140.570    -759.877    -314.607
  O     -140.863    -759.215    -313.394
  C     -140.833    -759.108    -315.898
  O     -140.278    -757.793    -315.840
  C     -140.058    -759.974    -316.930
  N     -140.968    -760.777    -317.753
  C     -141.606    -760.089    -318.788
  O     -141.446    -758.887    -319.013
  N     -142.484    -760.826    -319.545
  C     -142.798    -762.138    -319.338
  O     -143.622    -762.732    -320.030
  C     -142.104    -762.806    -318.225
  C     -141.230    -762.100    -317.498
  O     -138.080    -764.049    -312.461
  O     -140.363    -764.871    -313.387
  H     -140.882    -757.241    -315.310
  H     -141.028    -764.775    -314.090
  H     -142.967    -760.345    -320.281
  H     -142.326    -763.847    -318.050
  H     -140.707    -762.570    -316.671
  H     -139.462    -759.333    -317.596
  H     -141.902    -759.005    -316.103
  H     -141.230    -760.760    -314.631
  H     -138.428    -759.526    -314.751
  H     -137.717    -761.824    -314.177
  H     -138.619    -761.090    -312.840
  P     -142.249    -759.386    -312.612
  C     -141.362    -758.542    -310.329
  O     -142.269    -758.342    -311.387
  O     -142.699    -760.783    -312.333
  O     -143.285    -758.705    -313.638
  H     -144.155    -759.135    -313.557
  H     -141.539    -757.773    -309.563
  H     -140.330    -758.441    -310.677
  H     -141.511    -759.524    -309.870
  H     -137.205    -765.786    -316.025
  H     -137.826    -766.430    -314.524
  H     -136.590    -765.195    -314.500

 3  4  5  6  7  8  9  10  11  12  13  23  28  29  30  31  32 0
 6-311+G(2d,p)
 ****
 33  34 0
 6-311+G(2d,p)
 ****
 1  2  14  15  16  17  18  19  20  21  22  24  25  26  27 0
 3-21G
 ****
 35  36  37  38  39  40  41  42  43  44  45 0
 3-21G
 ****


