%nproc=1
%NoSave
%Mem=1900MB
#P OB98/GEN NMR

erre ene a

0 1
  C       62.320    -142.494     162.465
  O       61.576    -143.195     163.473
  P       61.844    -143.027     165.046
  C       60.308    -142.886     167.127
  O       60.500    -143.434     165.827
  C       58.847    -142.466     167.331
  O       58.520    -141.357     166.460
  C       57.811    -143.530     166.986
  O       57.754    -144.559     167.955
  C       56.543    -142.684     166.890
  O       55.953    -142.476     168.179
  C       57.076    -141.348     166.334
  N       56.672    -141.100     164.960
  C       55.383    -140.598     164.767
  O       54.618    -140.459     165.722
  N       54.989    -140.279     163.490
  C       55.772    -140.541     162.489
  N       55.335    -140.186     161.250
  C       57.086    -141.196     162.639
  C       57.469    -141.443     163.889
  O       62.377    -141.685     165.431
  O       62.876    -144.189     165.428
  H       63.395    -143.921     166.209
  H       56.677    -142.213     168.784
  H       57.686    -141.431     161.774
  H       58.428    -141.910     164.092
  H       56.739    -140.517     166.964
  H       55.783    -143.155     166.257
  H       58.043    -143.952     166.001
  H       58.730    -142.140     168.372
  H       54.433    -139.729     161.184
  H       60.947    -142.000     167.228
  H       55.873    -140.323     160.407
  H       60.611    -143.624     167.878
  P       58.386    -145.975     167.547
  C       59.542    -147.898     168.860
  O       58.642    -146.803     168.893
  O       59.865    -145.596     167.045
  O       57.631    -146.711     166.492
  H       60.099    -146.147     166.274
  H       59.967    -148.031     169.856
  H       60.348    -147.734     168.144
  H       58.990    -148.803     168.589
  H       61.958    -142.771     161.497
  H       63.356    -142.749     162.545
  H       62.200    -141.440     162.602

 3  4  5  6  7  8  9  10  11  12  13  24  27  28  29  30  32 0
 6-311+G(2d,p)
 ****
 34  35 0
 6-311+G(2d,p)
 ****
 1  2  14  15  16  17  18  19  20  21  22  23  25  26 0
 3-21G
 ****
 31  33  36  37  38  39  40  41  42  43  44  45  46 0
 3-21G
 ****


