%nproc=1
%NoSave
%Mem=1900MB
#P OB98/GEN NMR

erre ene a

0 1
  C      324.755    -142.445      74.092
  O      324.535    -141.344      73.218
  P      323.180    -140.501      73.388
  C      320.693    -140.837      72.732
  O      321.984    -141.421      72.835
  C      319.706    -141.788      72.050
  O      319.249    -142.769      73.027
  C      318.461    -141.108      71.470
  O      318.081    -141.847      70.299
  C      317.418    -141.322      72.553
  O      316.086    -141.204      72.050
  C      317.802    -142.724      73.030
  N      313.694    -142.588      76.081
  C      313.858    -142.259      74.785
  N      314.985    -142.323      74.034
  C      316.016    -142.785      74.771
  C      316.007    -143.122      76.116
  C      314.771    -143.017      76.784
  N      314.598    -143.364      78.106
  N      317.264    -143.523      76.523
  C      318.019    -143.426      75.445
  N      317.300    -143.006      74.360
  O      323.330    -139.368      72.264
  O      322.964    -139.904      74.738
  H      315.879    -142.009      71.540
  H      323.451    -138.492      72.686
  H      312.971    -141.900      74.272
  H      319.075    -143.643      75.405
  H      317.434    -143.506      72.356
  H      317.548    -140.583      73.348
  H      318.604    -140.053      71.225
  H      320.241    -142.339      71.272
  H      320.764    -139.924      72.136
  H      313.665    -143.387      78.476
  H      315.344    -143.861      78.584
  H      320.331    -140.571      73.731
  P      317.301    -141.035      69.154
  C      315.126    -139.626      69.120
  O      315.863    -140.657      69.745
  O      316.979    -142.165      68.062
  O      318.085    -139.909      68.563
  H      316.922    -141.762      67.171
  H      314.060    -139.856      69.198
  H      315.393    -139.508      68.066
  H      315.322    -138.679      69.643
  H      325.693    -142.904      73.858
  H      323.968    -143.160      73.971
  H      324.770    -142.099      75.104

 3  4  5  6  7  8  9  10  11  12  22  25  29  30  31  32 0
 6-311+G(2d,p)
 ****
 33  36  37 0
 6-311+G(2d,p)
 ****
 1  2  13  14  15  16  17  18  19  20  21  23  24  26 0
 3-21G
 ****
 27  28  34  35  38  39  40  41  42  43  44  45  46  47  48 0
 3-21G
 ****


