%nproc=1
%NoSave
%Mem=1900MB
#P OB98/GEN NMR

erre ene a

0 1
  C     -334.009    -641.211     -71.821
  O     -332.863    -640.907     -72.590
  H     -334.369    -642.202     -72.108
  H     -334.800    -640.483     -72.019
  H     -333.769    -641.221     -70.755
  P     -332.045    -639.569     -72.260
  C     -330.666    -640.907     -70.538
  O     -331.444    -639.743     -70.784
  C     -329.645    -640.624     -69.438
  O     -328.686    -639.642     -69.889
  C     -330.255    -640.053     -68.165
  O     -330.897    -641.062     -67.408
  C     -329.026    -639.449     -67.505
  O     -328.259    -640.452     -66.825
  C     -328.256    -638.897     -68.726
  N     -328.447    -637.460     -68.917
  C     -327.457    -636.629     -68.406
  O     -326.475    -637.044     -67.790
  N     -327.647    -635.287     -68.599
  C     -328.756    -634.706     -69.139
  O     -328.916    -633.489     -69.208
  C     -329.782    -635.631     -69.639
  C     -329.584    -636.944     -69.510
  O     -332.772    -638.289     -72.498
  O     -330.743    -639.685     -73.189
  H     -327.494    -639.992     -66.429
  H     -330.834    -639.077     -73.948
  H     -326.947    -634.667     -68.222
  H     -330.670    -635.209     -70.088
  H     -330.331    -637.642     -69.867
  H     -327.180    -639.086     -68.613
  H     -329.284    -638.689     -66.768
  H     -330.956    -639.249     -68.409
  H     -329.100    -641.555     -69.227
  H     -330.142    -641.181     -71.459
  H     -331.333    -641.726     -70.249
  P     -331.914    -640.657     -66.242
  C     -333.817    -640.159     -67.893
  O     -332.988    -639.641     -66.858
  O     -331.279    -640.211     -64.966
  O     -332.771    -641.989     -66.008
  H     -332.651    -642.296     -65.091
  H     -334.490    -639.397     -68.226
  H     -334.376    -640.991     -67.519
  H     -333.207    -640.478     -68.712

 6  7  8  9  10  11  12  13  14  15  16  26  31  32  33  34  35 0
 6-311+G(2d,p)
 ****
 36  37 0
 6-311+G(2d,p)
 ****
 1  2  3  4  5  17  18  19  20  21  22  23  24  25 0
 3-21G
 ****
 27  28  29  30  38  39  40  41  42  43  44  45 0
 3-21G
 ****


