%nproc=1
%NoSave
%Mem=1900MB
#P OB98/GEN NMR

erre ene a

0 1
  C     -678.087    -892.660     -56.723
  O     -677.245    -893.780     -56.413
  P     -675.989    -893.560     -55.435
  C     -673.875    -893.850     -56.945
  O     -674.720    -894.410     -55.951
  C     -672.966    -894.930     -57.578
  O     -671.990    -895.400     -56.604
  C     -673.716    -896.170     -58.096
  O     -673.005    -896.660     -59.233
  C     -673.576    -897.150     -56.943
  O     -673.791    -898.510     -57.327
  C     -672.137    -896.830     -56.490
  N     -671.838    -897.280     -55.133
  C     -671.531    -898.650     -54.966
  O     -671.587    -899.500     -55.879
  N     -671.183    -899.040     -53.701
  C     -671.159    -898.210     -52.587
  O     -670.895    -898.620     -51.469
  C     -671.513    -896.790     -52.837
  C     -671.830    -896.410     -54.088
  O     -676.429    -894.400     -54.132
  O     -675.682    -892.150     -55.065
  H     -673.646    -899.060     -56.548
  H     -676.251    -893.850     -53.321
  H     -670.975    -900.000     -53.548
  H     -671.483    -896.130     -51.982
  H     -672.050    -895.390     -54.280
  H     -671.432    -897.280     -57.213
  H     -674.315    -896.900     -56.169
  H     -674.765    -895.960     -58.355
  H     -672.405    -894.470     -58.396
  H     -673.239    -893.090     -56.501
  H     -674.493    -893.390     -57.728
  P     -673.295    -895.970     -60.675
  C     -675.072    -897.770     -61.330
  O     -673.864    -897.110     -61.634
  O     -671.783    -895.760     -61.193
  O     -674.057    -894.690     -60.606
  H     -671.225    -896.560     -61.054
  H     -675.814    -897.070     -60.941
  H     -674.892    -898.540     -60.577
  H     -675.463    -898.220     -62.237
  H     -678.870    -892.974     -57.381
  H     -677.506    -891.898     -57.198
  H     -678.513    -892.273     -55.821

 3  4  5  6  7  8  9  10  11  12  13  23  28  29  30  31  32 0
 6-311+G(2d,p)
 ****
 33  34 0
 6-311+G(2d,p)
 ****
 1  2  14  15  16  17  18  19  20  21  22  24  25  26 0
 3-21G
 ****
 27  35  36  37  38  39  40  41  42  43  44  45 0
 3-21G
 ****


