%nproc=1
%NoSave
%Mem=1900MB
#P OB98/GEN NMR

erre ene a

0 1
  C      358.364      79.092     144.515
  O      358.064      79.849     143.359
  H      358.836      79.751     145.249
  H      359.063      78.289     144.269
  H      357.453      78.675     144.953
  P      357.272      79.143     142.156
  C      358.550      80.750     140.610
  O      357.292      80.172     140.924
  C      358.427      81.682     139.406
  O      358.180      80.882     138.221
  C      357.292      82.703     139.530
  O      357.727      83.936     138.956
  C      356.187      82.107     138.681
  O      355.300      83.100     138.170
  C      356.981      81.381     137.596
  N      353.964      80.104     133.751
  C      354.640      81.282     134.001
  N      354.471      82.281     133.108
  N      355.414      81.467     135.038
  C      355.504      80.379     135.841
  C      354.885      79.160     135.703
  C      354.020      78.972     134.558
  O      353.386      77.958     134.292
  N      355.207      78.319     136.741
  C      356.015      79.032     137.504
  N      356.218      80.292     137.007
  O      355.914      78.620     142.502
  O      358.254      77.977     141.677
  H      355.854      83.779     137.727
  H      357.973      77.117     142.042
  H      353.375      80.018     132.942
  H      356.471      78.689     138.423
  H      357.270      82.048     136.773
  H      355.602      81.397     139.279
  H      353.904      82.205     132.278
  H      356.975      82.864     140.565
  H      354.975      83.148     133.258
  H      359.392      82.183     139.255
  H      359.251      79.940     140.380
  H      358.922      81.305     141.478
  P      357.644      85.270     139.840
  C      356.617      86.831     138.067
  O      357.763      86.532     138.857
  O      358.536      85.309     141.036
  O      356.098      85.313     140.271
  H      356.026      85.757     141.139
  H      356.818      87.687     137.457
  H      355.786      87.037     138.708
  H      356.386      85.994     137.442

 6  7  8  9  10  11  12  13  14  15  26  29  33  34 0
 6-311+G(2d,p)
 ****
 36  38  39  40  41 0
 6-311+G(2d,p)
 ****
 1  2  3  4  5  16  17  18  19  20  21  22  23  24  25 0
 3-21G
 ****
 27  28  30  31  32  35  37  42  43  44  45  46  47 0
 3-21G
 ****
 48  49 0
 3-21G
 ****


