%nproc=1
%NoSave
%Mem=1900MB
#P OB98/GEN NMR

erre ene a

0 1
  C     -170.654      75.711     104.512
  O     -172.020      75.861     104.903
  P     -172.444      75.494     106.404
  C     -173.586      77.755     106.870
  O     -173.750      76.348     106.793
  C     -173.640      78.389     105.473
  O     -174.973      78.256     104.900
  C     -173.305      79.886     105.492
  O     -172.633      80.269     104.281
  C     -174.675      80.535     105.486
  O     -174.617      81.886     105.032
  C     -175.439      79.581     104.574
  N     -179.755      81.690     102.799
  C     -178.482      81.743     102.357
  N     -177.388      81.138     102.866
  C     -177.714      80.401     103.940
  C     -178.970      80.241     104.504
  C     -180.027      80.933     103.891
  N     -181.320      80.902     104.362
  N     -178.912      79.410     105.604
  C     -177.636      79.115     105.731
  N     -176.876      79.661     104.733
  O     -171.346      75.526     107.414
  O     -173.038      74.012     106.250
  H     -173.990      81.917     104.287
  H     -172.730      73.464     107.002
  H     -178.318      82.361     101.477
  H     -177.209      78.527     106.532
  H     -175.212      79.761     103.516
  H     -175.091      80.535     106.501
  H     -172.702      80.206     106.346
  H     -172.952      77.849     104.813
  H     -172.635      77.992     107.350
  H     -181.987      81.522     103.927
  H     -181.505      80.467     105.254
  H     -174.363      78.169     107.524
  P     -171.125      80.809     104.454
  C     -169.991      80.259     102.163
  O     -170.636      81.208     102.983
  O     -170.241      79.878     105.214
  O     -171.361      82.212     105.188
  H     -172.020      82.787     104.764
  H     -169.858      80.683     101.166
  H     -170.595      79.349     102.072
  H     -169.010      80.011     102.573
  H     -170.543      75.997     103.487
  H     -170.359      74.689     104.632
  H     -170.037      76.335     105.125

 3  4  5  6  7  8  9  10  11  12  22  25  29  30  31  32 0
 6-311+G(2d,p)
 ****
 33  36  37 0
 6-311+G(2d,p)
 ****
 1  2  13  14  15  16  17  18  19  20  21  23  24  26 0
 3-21G
 ****
 27  28  34  35  38  39  40  41  42  43  44  45  46  47  48 0
 3-21G
 ****


