%nproc=1
%NoSave
%Mem=1900MB
#P OB98/GEN NMR

erre ene a

0 1
  C       76.725      27.748    -310.614
  O       77.586      26.629    -310.626
  H       75.851      27.522    -311.230
  H       77.226      28.626    -311.029
  H       76.387      27.956    -309.595
  P       79.005      26.751    -309.885
  C       78.924      24.192    -309.487
  O       79.651      25.285    -310.026
  C       78.958      23.008    -310.451
  O       78.310      23.337    -311.697
  C       80.358      22.548    -310.851
  O       81.031      21.836    -309.827
  C       80.013      21.668    -312.043
  O       79.479      20.416    -311.577
  C       78.917      22.515    -312.734
  N       79.436      23.353    -313.812
  C       79.822      22.696    -314.987
  O       79.719      21.474    -315.084
  N       80.352      23.436    -316.016
  C       80.503      24.717    -315.876
  N       81.079      25.396    -316.908
  C       80.095      25.451    -314.664
  C       79.580      24.717    -313.680
  O       78.981      27.310    -308.499
  O       79.909      27.599    -310.897
  H       79.135      19.945    -312.358
  H       80.797      27.714    -310.478
  H       80.251      26.518    -314.596
  H       79.272      25.183    -312.750
  H       78.125      21.872    -313.137
  H       80.877      21.441    -312.674
  H       80.960      23.392    -311.203
  H       78.382      22.194    -309.994
  H       81.384      24.855    -317.704
  H       77.897      24.521    -309.305
  H       81.479      26.320    -316.773
  H       79.369      23.876    -308.538
  P       82.637      21.790    -309.878
  C       83.049      21.727    -307.305
  O       83.117      21.038    -308.543
  O       83.045      23.313    -309.623
  O       83.230      21.236    -311.136
  H       83.177      23.789    -310.467
  H       83.403      21.089    -306.522
  H       82.035      22.005    -307.107
  H       83.657      22.606    -307.352

 6  7  8  9  10  11  12  13  14  15  16  26  30  31  32  33  35 0
 6-311+G(2d,p)
 ****
 37  38 0
 6-311+G(2d,p)
 ****
 1  2  3  4  5  17  18  19  20  21  22  23  24  25 0
 3-21G
 ****
 27  28  29  34  36  39  40  41  42  43  44  45  46 0
 3-21G
 ****


