%nproc=1
%NoSave
%Mem=1900MB
#P OB98/GEN NMR

erre ene a

0 1
  C       22.302      80.587     -61.445
  O       22.062      81.513     -62.486
  H       22.933      81.063     -60.689
  H       22.823      79.708     -61.836
  H       21.359      80.287     -60.981
  P       21.170      80.992     -63.714
  C       22.878      81.948     -65.416
  O       22.178      80.804     -64.949
  C       24.358      81.627     -65.603
  O       24.893      80.981     -64.426
  C       24.659      80.706     -66.780
  O       24.718      81.432     -67.996
  C       26.008      80.133     -66.370
  O       27.083      81.047     -66.670
  C       25.840      79.966     -64.853
  N       27.243      75.536     -62.883
  C       27.973      76.686     -63.099
  N       29.288      76.628     -62.791
  N       27.467      77.789     -63.581
  C       26.149      77.687     -63.872
  C       25.313      76.610     -63.689
  C       25.882      75.405     -63.125
  O       25.275      74.375     -62.848
  N       24.035      76.900     -64.090
  C       24.105      78.135     -64.548
  N       25.372      78.650     -64.454
  O       20.319      82.285     -64.131
  O       20.289      79.827     -63.416
  H       26.819      81.946     -66.414
  H       19.458      81.997     -64.489
  H       27.687      74.723     -62.492
  H       23.274      78.694     -64.956
  H       26.775      80.146     -64.312
  H       26.230      79.206     -66.900
  H       29.783      75.748     -62.742
  H       23.922      79.896     -66.837
  H       29.836      77.461     -62.968
  H       24.888      82.581     -65.717
  H       22.775      82.752     -64.681
  H       22.441      82.274     -66.366
  P       23.761      80.958     -69.194
  C       25.818      80.223     -70.606
  O       24.580      79.851     -70.016
  O       23.753      82.217     -70.182
  O       22.385      80.564     -68.774
  H       23.001      82.152     -70.800
  H       26.238      79.381     -71.115
  H       26.492      80.551     -69.843
  H       25.656      81.017     -71.304

 6  7  8  9  10  11  12  13  14  15  26  29  33  34 0
 6-311+G(2d,p)
 ****
 36  38  39  40  41 0
 6-311+G(2d,p)
 ****
 1  2  3  4  5  16  17  18  19  20  21  22  23  24  25 0
 3-21G
 ****
 27  28  30  31  32  35  37  42  43  44  45  46  47 0
 3-21G
 ****
 48  49 0
 3-21G
 ****


