%nproc=1
%NoSave
%Mem=1900MB
#P OB98/GEN NMR

erre ene a

0 1
  C       47.424     195.883    -194.395
  O       48.646     195.437    -193.796
  P       48.708     193.918    -193.289
  C       49.766     192.959    -195.467
  O       49.894     193.169    -194.066
  C       50.968     193.560    -196.200
  O       50.942     195.000    -196.156
  C       52.302     193.167    -195.586
  O       52.656     191.851    -195.966
  C       53.233     194.239    -196.138
  O       53.816     193.844    -197.390
  C       52.295     195.454    -196.328
  N       52.605     196.548    -195.424
  C       52.256     197.827    -195.868
  O       51.740     197.979    -196.978
  N       52.524     198.901    -195.057
  C       53.111     198.715    -193.917
  N       53.357     199.817    -193.159
  C       53.521     197.384    -193.422
  C       53.242     196.356    -194.220
  O       47.387     193.267    -193.919
  O       48.736     193.775    -191.803
  H       54.411     193.096    -197.180
  H       47.035     192.578    -193.328
  H       54.016     197.279    -192.468
  H       53.505     195.342    -193.938
  H       52.368     195.833    -197.354
  H       54.064     194.437    -195.453
  H       52.248     193.249    -194.493
  H       50.930     193.240    -197.252
  H       53.065     200.713    -193.530
  H       48.842     193.411    -195.834
  H       53.814     199.788    -192.260
  H       49.688     191.884    -195.657
  P       53.490     190.973    -194.920
  C       53.136     189.061    -196.595
  O       54.062     189.741    -195.774
  O       52.326     190.269    -194.070
  O       54.464     191.689    -194.046
  H       52.707     189.771    -193.326
  H       53.684     188.396    -197.266
  H       52.560     189.768    -197.196
  H       52.462     188.458    -195.977
  H       47.522     196.908    -194.685
  H       46.625     195.787    -193.690
  H       47.212     195.287    -195.258

 3  4  5  6  7  8  9  10  11  12  13  21  23  27  28  29  30  32 0
 6-311+G(2d,p)
 ****
 34  35 0
 6-311+G(2d,p)
 ****
 1  2  14  15  16  17  18  19  20  22  24  25  26 0
 3-21G
 ****
 31  33  36  37  38  39  40  41  42  43  44  45  46 0
 3-21G
 ****


