%nproc=1
%NoSave
%Mem=1900MB
#P OB98/GEN NMR

erre ene a

0 1
  C      263.275      59.444     335.414
  O      262.400      58.720     336.255
  P      260.853      58.552     335.855
  C      258.920      60.125     335.220
  O      260.171      60.006     335.895
  C      258.477      61.583     335.166
  O      259.396      62.373     334.368
  C      257.116      61.799     334.513
  O      256.063      61.376     335.354
  C      257.162      63.296     334.232
  O      256.848      64.050     335.415
  C      258.649      63.494     333.849
  N      258.828      63.636     332.413
  C      258.136      64.691     331.808
  O      257.359      65.387     332.466
  N      258.339      64.920     330.469
  C      259.060      64.100     329.774
  N      259.280      64.412     328.468
  C      259.672      62.881     330.341
  C      259.541      62.729     331.664
  O      260.110      57.496     336.607
  O      260.888      58.222     334.292
  H      260.330      57.426     334.127
  H      256.973      64.988     335.186
  H      260.218      62.192     329.712
  H      259.977      61.874     332.169
  H      259.047      64.376     334.351
  H      256.450      63.587     333.457
  H      257.075      61.244     333.568
  H      258.484      61.981     336.193
  H      258.853      65.263     328.112
  H      258.178      59.535     335.756
  H      260.064      64.044     327.929
  H      259.013      59.712     334.210
  P      254.695      60.923     334.635
  C      253.102      62.164     333.016
  O      253.947      62.249     334.146
  O      253.796      60.396     335.849
  O      254.870      59.868     333.592
  H      253.260      59.636     335.562
  H      252.427      63.022     333.027
  H      252.517      61.242     333.021
  H      253.713      62.212     332.104
  H      264.256      59.449     335.840
  H      262.924      60.450     335.315
  H      263.307      58.981     334.450

 3  4  5  6  7  8  9  10  11  12  13  24  27  28  29  30  32 0
 6-311+G(2d,p)
 ****
 34  35 0
 6-311+G(2d,p)
 ****
 1  2  14  15  16  17  18  19  20  21  22  23  25  26 0
 3-21G
 ****
 31  33  36  37  38  39  40  41  42  43  44  45  46 0
 3-21G
 ****


