%nproc=1
%NoSave
%Mem=1900MB
#P OB98/GEN NMR

erre ene a

0 1
  C      -71.773    -136.407      46.349
  O      -72.787    -136.168      45.395
  H      -72.239    -136.716      47.288
  H      -71.204    -135.491      46.524
  H      -71.105    -137.201      46.007
  P      -72.311    -135.788      43.911
  C      -72.513    -136.886      41.570
  O      -72.825    -136.972      42.953
  C      -73.228    -137.984      40.786
  O      -72.945    -139.271      41.412
  C      -74.756    -137.828      40.729
  O      -75.202    -138.301      39.452
  C      -75.235    -138.806      41.789
  O      -76.591    -139.203      41.596
  C      -74.213    -139.926      41.605
  N      -75.902    -144.348      43.307
  C      -76.072    -143.735      42.081
  N      -76.806    -144.401      41.164
  N      -75.566    -142.569      41.780
  C      -74.827    -142.032      42.780
  C      -74.587    -142.532      44.036
  C      -75.176    -143.813      44.367
  O      -75.077    -144.397      45.442
  N      -73.811    -141.671      44.772
  C      -73.582    -140.655      43.959
  N      -74.178    -140.827      42.740
  O      -70.729    -136.020      43.981
  O      -72.655    -134.408      43.462
  H      -76.816    -139.854      42.292
  H      -70.274    -135.184      44.197
  H      -76.325    -145.241      43.493
  H      -73.001    -139.776      44.203
  H      -74.421    -140.540      40.720
  H      -75.149    -138.356      42.786
  H      -77.186    -145.323      41.309
  H      -75.112    -136.807      40.892
  H      -76.905    -143.987      40.244
  H      -72.802    -138.025      39.776
  H      -71.431    -136.999      41.443
  H      -72.814    -135.902      41.194
  P      -75.087    -137.308      38.200
  C      -72.621    -136.555      38.533
  O      -73.554    -137.268      37.736
  O      -75.292    -135.867      38.869
  O      -76.087    -137.562      37.121
  H      -75.670    -135.250      38.216
  H      -71.649    -136.624      38.091
  H      -72.597    -136.976      39.516
  H      -72.914    -135.528      38.592

 6  7  8  9  10  11  12  13  14  15  26  29  33  34 0
 6-311+G(2d,p)
 ****
 36  38  39  40  41 0
 6-311+G(2d,p)
 ****
 1  2  3  4  5  16  17  18  19  20  21  22  23  24  25 0
 3-21G
 ****
 27  28  30  31  32  35  37  42  43  44  45  46  47 0
 3-21G
 ****
 48  49 0
 3-21G
 ****


