%nproc=1
%NoSave
%Mem=1900MB
#P OB98/GEN NMR

erre ene a

0 1
  C      -69.087     565.663      -0.117
  O      -68.023     566.284      -0.811
  P      -68.110     567.875      -1.027
  C      -66.177     568.812       0.446
  O      -66.625     568.450      -0.855
  C      -64.650     568.851       0.480
  O      -64.116     567.516       0.409
  C      -64.009     569.608      -0.675
  O      -64.129     571.011      -0.497
  C      -62.583     569.075      -0.601
  O      -61.860     569.739       0.448
  C      -62.814     567.599      -0.232
  N      -59.848     565.420      -3.792
  C      -59.571     566.282      -2.790
  N      -60.416     566.836      -1.896
  C      -61.672     566.407      -2.108
  C      -62.111     565.550      -3.102
  C      -61.135     565.040      -3.972
  N      -61.426     564.166      -4.996
  N      -63.477     565.358      -3.017
  C      -63.848     566.081      -1.981
  N      -62.796     566.722      -1.392
  O      -68.857     568.378       0.294
  O      -68.826     568.299      -2.272
  H      -62.309     569.526       1.290
  H      -69.432     569.144       0.099
  H      -58.526     566.568      -2.692
  H      -64.867     566.171      -1.626
  H      -62.070     567.224       0.478
  H      -62.021     569.220      -1.529
  H      -64.470     569.318      -1.627
  H      -64.345     569.293       1.440
  H      -66.528     568.071       1.169
  H      -60.695     563.967      -5.662
  H      -62.401     563.993      -5.213
  H      -66.600     569.785       0.711
  P      -63.658     571.949      -1.714
  C      -65.795     571.920      -3.139
  O      -65.020     572.649      -2.204
  O      -63.382     570.872      -2.864
  O      -62.533     572.872      -1.398
  H      -64.113     570.242      -2.955
  H      -66.708     572.476      -3.349
  H      -66.059     570.938      -2.729
  H      -65.235     571.794      -4.074
  H      -68.901     564.612      -0.046
  H      -70.002     565.828      -0.646
  H      -69.163     566.079       0.866

 3  4  5  6  7  8  9  10  11  12  22  25  29  30  31  32 0
 6-311+G(2d,p)
 ****
 33  36  37 0
 6-311+G(2d,p)
 ****
 1  2  13  14  15  16  17  18  19  20  21  23  24  26 0
 3-21G
 ****
 27  28  34  35  38  39  40  41  42  43  44  45  46  47  48 0
 3-21G
 ****


