%nproc=1
%NoSave
%Mem=1900MB
#P OB98/GEN NMR

erre ene a

0 1
  C     -185.695    -181.868    -344.317
  O     -186.111    -180.523    -344.058
  P     -187.671    -180.190    -344.288
  C     -187.241    -177.629    -344.469
  O     -187.918    -178.683    -343.794
  C     -187.362    -176.321    -343.689
  O     -186.406    -176.267    -342.614
  C     -187.100    -175.070    -344.519
  O     -188.232    -174.706    -345.295
  C     -186.845    -174.039    -343.424
  O     -188.096    -173.540    -342.921
  C     -186.124    -174.869    -342.349
  N     -182.306    -171.826    -340.988
  C     -183.669    -171.669    -340.813
  N     -184.066    -170.556    -340.159
  N     -184.555    -172.526    -341.239
  C     -184.011    -173.608    -341.850
  C     -182.682    -173.872    -342.086
  C     -181.708    -172.902    -341.638
  O     -180.494    -172.973    -341.795
  N     -182.516    -175.075    -342.724
  C     -183.739    -175.549    -342.853
  N     -184.684    -174.687    -342.351
  O     -188.393    -181.069    -343.163
  O     -188.161    -180.518    -345.659
  H     -187.930    -173.214    -342.015
  H     -189.303    -181.291    -343.443
  H     -181.665    -171.131    -340.646
  H     -183.994    -176.505    -343.296
  H     -186.498    -174.646    -341.345
  H     -186.278    -173.174    -343.784
  H     -183.432    -169.891    -339.739
  H     -186.202    -175.191    -345.134
  H     -185.060    -170.445    -339.988
  H     -188.374    -176.274    -343.257
  H     -187.665    -177.496    -345.468
  H     -186.191    -177.909    -344.606
  P     -188.000    -173.627    -346.462
  C     -190.285    -172.492    -345.962
  O     -189.467    -173.158    -346.908
  O     -187.489    -174.519    -347.687
  O     -187.040    -172.538    -346.115
  H     -186.910    -173.988    -348.271
  H     -189.712    -171.753    -345.396
  H     -190.721    -173.222    -345.276
  H     -191.093    -171.983    -346.494
  H     -184.646    -181.959    -344.128
  H     -185.896    -182.113    -345.339
  H     -186.232    -182.537    -343.677

 3  4  5  6  7  8  9  10  11  12  23  26  30  31  33  0
 6-311+G(2d,p)
 ****
 35  36  37  38 0
 6-311+G(2d,p)
 ****
 1  2  13  14  15  16  17  18  19  20  21  22  24  25  27  28  29 0
 3-21G
 ****
 32  34  39  40  41  42  43  44  45  46  47  48  49 0
 3-21G
 ****


