%nproc=1
%NoSave
%Mem=1900MB
#P OB98/GEN NMR

erre ene a

0 1
  C      113.379     387.145     144.542
  O      113.309     386.309     145.708
  P      113.921     386.769     147.121
  C      116.097     386.462     148.474
  O      115.422     386.202     147.246
  C      116.613     385.171     149.123
  O      115.537     384.440     149.746
  C      117.272     384.194     148.149
  O      118.596     384.611     147.846
  C      117.172     382.887     148.926
  O      118.226     382.798     149.897
  C      115.814     383.037     149.619
  N      114.183     378.568     147.728
  C      115.293     378.903     148.427
  N      115.662     380.117     148.890
  C      114.723     381.040     148.591
  C      113.548     380.842     147.881
  C      113.284     379.537     147.436
  N      112.162     379.200     146.716
  N      112.858     382.031     147.753
  C      113.594     382.924     148.383
  N      114.731     382.371     148.905
  O      113.052     386.451     148.296
  O      114.131     388.347     146.978
  H      118.124     383.548     150.510
  H      114.069     388.769     147.859
  H      115.979     378.087     148.633
  H      113.347     383.977     148.492
  H      115.832     382.627     150.640
  H      117.248     382.006     148.278
  H      116.679     384.120     147.228
  H      117.321     385.456     149.908
  H      115.394     386.962     149.153
  H      112.064     378.244     146.407
  H      111.510     379.928     146.458
  H      116.933     387.141     148.271
  P      118.896     385.383     146.470
  C      118.470     384.740     144.026
  O      118.888     384.287     145.300
  O      120.086     386.286     146.488
  O      117.553     386.208     146.191
  H      117.762     387.018     145.698
  H      117.375     384.780     143.989
  H      118.819     384.023     143.270
  H      118.887     385.720     143.799
  H      112.913     386.647     143.717
  H      114.404     387.343     144.306
  H      112.872     388.068     144.734

 3  4  5  6  7  8  9  10  11  12  22  25  29  30  31  32 0
 6-311+G(2d,p)
 ****
 33  36  37 0
 6-311+G(2d,p)
 ****
 1  2  13  14  15  16  17  18  19  20  21  23  24  26 0
 3-21G
 ****
 27  28  34  35  38  39  40  41  42  43  44  45  46  47  48 0
 3-21G
 ****


