%nproc=1
%NoSave
%Mem=1900MB
#P OB98/GEN NMR

erre ene a

0 1
  C       48.361     106.041     342.072
  O       47.514     104.979     341.684
  H       47.973     106.969     341.648
  H       49.373     105.882     341.691
  H       48.383     106.137     343.162
  P       47.871     103.494     342.179
  C       47.680     102.629     339.741
  O       48.511     102.790     340.882
  C       48.465     101.987     338.602
  O       49.569     102.822     338.189
  C       49.105     100.646     338.940
  O       48.182      99.572     339.026
  C       50.049     100.501     337.762
  O       49.307     100.123     336.588
  C       50.594     101.944     337.641
  N       51.860     102.132     338.349
  C       53.000     102.326     337.559
  O       52.917     102.329     336.330
  N       54.218     102.485     338.179
  C       54.295     102.427     339.474
  N       55.525     102.581     340.033
  C       53.124     102.202     340.343
  C       51.955     102.064     339.725
  O       46.760     102.737     342.836
  O       49.159     103.681     343.113
  H       48.482     100.643     336.593
  H       49.414     102.791     343.454
  H       53.248     102.130     341.415
  H       51.047     101.891     340.297
  H       50.731     102.225     336.589
  H       50.821      99.742     337.916
  H       49.703     100.717     339.859
  H       47.785     101.902     337.742
  H       56.312     102.732     339.414
  H       47.302     103.615     339.453
  H       55.694     102.473     341.025
  H       46.831     101.982     339.987
  P       48.625      98.297     339.898
  C       48.455      96.346     338.168
  O       49.283      97.259     338.871
  O       47.227      97.625     340.294
  O       49.473      98.605     341.092
  H       46.967      97.885     341.198
  H       49.059      95.734     337.532
  H       47.749      96.889     337.575
  H       47.933      95.727     338.867

 6  7  8  9  10  11  12  13  14  15  16  26  30  31  32  33  35 0
 6-311+G(2d,p)
 ****
 37  38 0
 6-311+G(2d,p)
 ****
 1  2  3  4  5  17  18  19  20  21  22  23  24  25 0
 3-21G
 ****
 27  28  29  34  36  39  40  41  42  43  44  45  46 0
 3-21G
 ****


