%nproc=1
%NoSave
%Mem=1900MB
#P OB98/GEN NMR

erre ene a

0 1
  C      377.071    -623.897     267.086
  O      377.344    -622.759     266.282
  H      376.667    -623.550     268.040
  H      377.992    -624.455     267.281
  H      376.332    -624.539     266.603
  P      377.960    -622.994     264.819
  C      379.887    -624.480     263.914
  O      379.142    -624.060     265.053
  C      381.227    -625.066     264.351
  O      381.056    -626.056     265.389
  C      381.996    -625.791     263.249
  O      382.580    -624.924     262.298
  C      383.032    -626.511     264.097
  O      384.045    -625.582     264.521
  C      382.172    -626.988     265.283
  N      381.676    -628.352     265.115
  C      382.146    -629.310     266.031
  O      382.938    -628.991     266.917
  N      381.728    -630.620     265.903
  C      380.934    -630.945     264.931
  N      380.562    -632.253     264.844
  C      380.434    -629.976     263.931
  C      380.841    -628.713     264.084
  O      378.349    -621.758     264.065
  O      376.866    -623.889     264.063
  H      384.551    -625.328     263.727
  H      377.200    -624.054     263.141
  H      379.792    -630.308     263.125
  H      380.512    -627.954     263.388
  H      382.732    -626.925     266.225
  H      383.537    -627.317     263.560
  H      381.358    -626.541     262.762
  H      381.821    -624.240     264.783
  H      380.921    -632.893     265.540
  H      380.027    -623.611     263.263
  H      380.005    -632.612     264.078
  H      379.326    -625.247     263.372
  P      382.459    -625.358     260.748
  C      383.588    -627.253     259.350
  O      383.186    -626.788     260.625
  O      383.464    -624.350     260.010
  O      381.070    -625.317     260.185
  H      382.967    -623.604     259.617
  H      384.051    -628.212     259.450
  H      384.285    -626.563     258.922
  H      382.732    -627.335     258.714

 6  7  8  9  10  11  12  13  14  15  16  26  30  31  32  33  35 0
 6-311+G(2d,p)
 ****
 37  38 0
 6-311+G(2d,p)
 ****
 1  2  3  4  5  17  18  19  20  21  22  23  24  25 0
 3-21G
 ****
 27  28  29  34  36  39  40  41  42  43  44  45  46 0
 3-21G
 ****


