%nproc=1
%NoSave
%Mem=1900MB
#P OB98/GEN NMR

erre ene a

0 1
  C     -286.489     -38.798      87.614
  O     -287.632     -37.959      87.618
  P     -288.677     -38.008      88.833
  C     -287.093     -36.812      90.467
  O     -287.807     -38.009      90.182
  C     -286.988     -36.593      91.975
  O     -286.070     -35.503      92.226
  C     -288.317     -36.233      92.630
  O     -288.369     -36.829      93.929
  C     -288.256     -34.725      92.799
  O     -289.091     -34.288      93.885
  C     -286.755     -34.505      93.009
  N     -285.669     -29.706      94.468
  C     -286.050     -30.794      95.172
  N     -286.347     -32.030      94.716
  C     -286.160     -32.101      93.389
  C     -285.770     -31.077      92.539
  C     -285.520     -29.827      93.128
  N     -285.118     -28.722      92.409
  N     -285.718     -31.523      91.231
  C     -286.051     -32.792      91.298
  N     -286.317     -33.192      92.581
  O     -289.692     -39.093      88.749
  O     -289.353     -36.560      88.839
  H     -288.927     -33.330      94.006
  H     -290.302     -36.630      89.055
  H     -286.133     -30.651      96.246
  H     -286.124     -33.460      90.453
  H     -286.468     -34.643      94.058
  H     -288.610     -34.238      91.885
  H     -289.182     -36.549      92.038
  H     -286.561     -37.494      92.432
  H     -287.635     -35.973      90.020
  H     -284.845     -27.904      92.931
  H     -284.842     -28.856      91.446
  H     -286.099     -36.865      90.013
  P     -289.838     -37.214      94.467
  C     -289.830     -39.579      93.379
  O     -290.389     -38.285      93.413
  O     -290.678     -36.005      94.716
  O     -289.474     -38.060      95.778
  H     -288.578     -38.458      95.714
  H     -290.307     -40.146      92.575
  H     -290.018     -40.095      94.325
  H     -288.755     -39.528      93.189
  H     -285.919     -38.620      86.726
  H     -286.798     -39.822      87.640
  H     -285.887     -38.585      88.473

 3  4  5  6  7  8  9  10  11  12  22  25  29  30  31  32 0
 6-311+G(2d,p)
 ****
 33  36  37 0
 6-311+G(2d,p)
 ****
 1  2  13  14  15  16  17  18  19  20  21  23  24  26 0
 3-21G
 ****
 27  28  34  35  38  39  40  41  42  43  44  45  46  47  48 0
 3-21G
 ****


