%nproc=1
%NoSave
%Mem=1900MB
#P OB98/GEN NMR

erre ene a

0 1
  C     -415.151    -421.416     311.225
  O     -415.143    -421.983     312.529
  P     -413.995    -421.496     313.535
  C     -414.001    -420.738     316.023
  O     -414.752    -420.949     314.834
  C     -414.659    -419.669     316.891
  O     -414.635    -418.395     316.222
  C     -416.127    -419.944     317.201
  O     -416.246    -420.928     318.212
  C     -416.609    -418.561     317.623
  O     -416.372    -418.334     319.022
  C     -415.735    -417.619     316.752
  N     -416.489    -416.977     315.690
  C     -417.502    -416.104     316.110
  O     -417.717    -415.940     317.314
  N     -418.274    -415.481     315.161
  C     -418.042    -415.710     313.897
  N     -418.828    -415.060     313.001
  C     -416.996    -416.637     313.423
  C     -416.276    -417.238     314.363
  O     -413.439    -420.165     312.839
  O     -412.915    -422.495     313.783
  H     -416.842    -417.503     319.233
  H     -412.514    -419.997     313.097
  H     -416.856    -416.788     312.358
  H     -415.482    -417.933     314.093
  H     -415.280    -416.835     317.374
  H     -417.680    -418.434     317.457
  H     -416.651    -420.260     316.297
  H     -414.081    -419.573     317.823
  H     -419.542    -414.430     313.360
  H     -412.989    -420.400     315.754
  H     -418.725    -415.149     311.999
  H     -413.913    -421.685     316.565
  P     -417.702    -421.524     318.501
  C     -418.541    -423.461     319.959
  O     -417.442    -422.903     319.260
  O     -418.154    -422.024     317.047
  O     -418.714    -420.601     319.109
  H     -419.084    -422.321     317.067
  H     -418.279    -424.466     320.293
  H     -419.419    -423.520     319.304
  H     -418.782    -422.841     320.832
  H     -415.963    -421.826     310.663
  H     -414.228    -421.640     310.733
  H     -415.268    -420.355     311.298

 3  4  5  6  7  8  9  10  11  12  13  21  23  27  28  29  30  32 0
 6-311+G(2d,p)
 ****
 34  35 0
 6-311+G(2d,p)
 ****
 1  2  14  15  16  17  18  19  20  22  24  25  26 0
 3-21G
 ****
 31  33  36  37  38  39  40  41  42  43  44  45  46 0
 3-21G
 ****


