%nproc=1
%NoSave
%Mem=1900MB
#P OB98/GEN NMR

erre ene a

0 1
  C     -733.278    -240.009     231.165
  O     -734.545    -239.481     231.487
  H     -733.191    -241.005     231.608
  H     -732.498    -239.367     231.587
  H     -733.139    -240.093     230.086
  P     -735.120    -238.270     230.614
  C     -734.062    -236.445     232.104
  O     -734.138    -237.011     230.798
  C     -732.997    -235.346     232.182
  O     -731.688    -235.921     231.993
  C     -733.178    -234.281     231.091
  O     -734.058    -233.231     231.437
  C     -731.749    -233.768     230.922
  O     -731.469    -232.692     231.839
  C     -730.886    -234.990     231.254
  N     -726.880    -235.572     228.131
  C     -727.053    -234.658     229.152
  N     -726.048    -233.768     229.327
  N     -728.122    -234.613     229.901
  C     -729.077    -235.503     229.542
  C     -729.022    -236.446     228.537
  C     -727.805    -236.535     227.756
  O     -727.592    -237.335     226.859
  N     -730.201    -237.148     228.438
  C     -730.994    -236.566     229.317
  N     -730.332    -235.618     230.067
  O     -736.424    -237.811     231.421
  O     -735.466    -238.603     229.195
  H     -731.234    -233.088     232.707
  H     -737.093    -237.466     230.800
  H     -726.025    -235.578     227.607
  H     -732.030    -236.823     229.486
  H     -730.038    -234.716     231.895
  H     -731.596    -233.370     229.913
  H     -725.248    -233.699     228.726
  H     -733.484    -234.745     230.148
  H     -726.224    -232.964     229.941
  H     -733.014    -234.899     233.186
  H     -733.801    -237.260     232.780
  H     -735.036    -236.060     232.411
  P     -735.034    -232.583     230.346
  C     -733.173    -230.921     229.524
  O     -734.131    -231.899     229.213
  O     -735.664    -231.331     231.112
  O     -736.076    -233.497     229.795
  H     -736.551    -231.555     231.451
  H     -732.686    -230.600     228.627
  H     -732.448    -231.332     230.195
  H     -733.654    -230.085     229.987

 6  7  8  9  10  11  12  13  14  15  26  29  33  34 0
 6-311+G(2d,p)
 ****
 36  38  39  40  41 0
 6-311+G(2d,p)
 ****
 1  2  3  4  5  16  17  18  19  20  21  22  23  24  25 0
 3-21G
 ****
 27  28  30  31  32  35  37  42  43  44  45  46  47 0
 3-21G
 ****
 48  49 0
 3-21G
 ****


