%nproc=1
%NoSave
%Mem=1900MB
#P OB98/GEN NMR

erre ene a

0 1
  C      532.466     328.548     371.772
  O      533.528     329.488     371.745
  P      534.870     329.227     372.580
  C      535.618     327.914     374.646
  O      534.549     328.202     373.771
  C      535.101     327.480     376.024
  O      534.644     328.672     376.759
  C      533.928     326.480     375.985
  O      534.131     325.564     377.081
  C      532.714     327.366     376.244
  O      531.614     326.618     376.731
  C      533.304     328.401     377.214
  N      532.503     329.602     377.284
  C      531.319     329.541     378.042
  O      530.940     328.466     378.495
  N      530.611     330.707     378.249
  C      530.956     331.781     377.593
  N      530.258     332.924     377.874
  C      532.040     331.814     376.599
  C      532.800     330.710     376.524
  O      535.596     330.465     373.012
  O      535.793     328.352     371.586
  H      536.667     328.791     371.497
  H      530.783     327.082     376.519
  H      532.189     332.691     375.993
  H      533.631     330.650     375.834
  H      533.396     327.950     378.220
  H      532.408     327.843     375.306
  H      533.896     325.929     375.038
  H      535.938     327.076     376.588
  H      529.548     332.870     378.595
  H      536.224     328.820     374.756
  H      530.629     333.846     377.675
  H      536.257     327.132     374.223
  P      533.478     324.099     376.948
  C      531.053     323.179     377.291
  O      531.861     324.278     376.958
  O      533.735     323.502     378.415
  O      534.044     323.186     375.913
  H      533.757     322.523     378.358
  H      530.017     323.456     377.171
  H      531.228     322.877     378.326
  H      531.275     322.325     376.617
  H      531.664     328.898     371.156
  H      532.119     328.431     372.777
  H      532.814     327.606     371.403

 3  4  5  6  7  8  9  10  11  12  13  24  27  28  29  30  32 0
 6-311+G(2d,p)
 ****
 34  35 0
 6-311+G(2d,p)
 ****
 1  2  14  15  16  17  18  19  20  21  22  23  25  26 0
 3-21G
 ****
 31  33  36  37  38  39  40  41  42  43  44  45  46 0
 3-21G
 ****


