%nproc=1
%NoSave
%Mem=1900MB
#P OB98/GEN NMR

erre ene a

0 1
  C     -890.852     294.376     -66.739
  O     -891.852     294.152     -67.715
  H     -890.442     295.389     -66.885
  H     -890.032     293.651     -66.854
  H     -891.272     294.310     -65.734
  P     -892.572     292.725     -67.757
  C     -894.742     294.083     -67.462
  O     -894.112     292.996     -68.122
  C     -896.272     293.983     -67.613
  O     -896.602     294.404     -68.969
  C     -896.792     292.554     -67.413
  O     -897.842     292.455     -66.447
  C     -897.102     292.079     -68.837
  O     -898.092     291.076     -68.931
  C     -897.442     293.389     -69.555
  N     -897.222     293.343     -70.997
  C     -898.062     292.504     -71.745
  O     -898.992     291.820     -71.266
  N     -897.822     292.453     -73.089
  C     -896.852     293.139     -73.754
  O     -896.682     293.076     -74.965
  C     -895.972     293.990     -72.922
  C     -896.202     294.041     -71.605
  O     -892.352     291.839     -66.575
  O     -891.992     292.050     -69.104
  H     -898.182     290.851     -69.864
  H     -891.322     291.387     -68.869
  H     -898.432     291.873     -73.641
  H     -895.192     294.527     -73.415
  H     -895.592     294.661     -70.962
  H     -898.472     293.666     -69.388
  H     -896.172     291.664     -69.267
  H     -896.012     291.913     -66.997
  H     -896.742     294.688     -66.920
  H     -894.382     295.012     -67.916
  H     -894.482     294.059     -66.399
  P     -897.772     291.592     -65.110
  C     -899.042     292.914     -63.238
  O     -899.092     291.915     -64.245
  O     -896.462     291.604     -64.387
  O     -898.032     290.076     -65.641
  H     -897.522     289.494     -65.055
  H     -900.000     292.995     -62.768
  H     -898.781     293.853     -63.680
  H     -898.308     292.647     -62.507

 6  7  8  9  10  11  12  13  14  15  16  26  31  32  33  34  35 0
 6-311+G(2d,p)
 ****
 36  37 0
 6-311+G(2d,p)
 ****
 1  2  3  4  5  17  18  19  20  21  22  23  24  25 0
 3-21G
 ****
 27  28  29  30  38  39  40  41  42  43  44  45 0
 3-21G
 ****


