%nproc=1
%NoSave
%Mem=1900MB
#P OB98/GEN NMR

erre ene a

0 1
  C     -689.576    -495.423     309.136
  O     -688.570    -495.553     308.146
  P     -687.944    -494.256     307.442
  C     -686.692    -495.713     305.707
  O     -687.662    -494.705     305.918
  C     -687.017    -496.493     304.431
  O     -688.275    -497.171     304.597
  C     -687.156    -495.631     303.190
  O     -685.894    -495.228     302.690
  C     -687.950    -496.570     302.279
  O     -687.080    -497.532     301.674
  C     -688.904    -497.264     303.288
  N     -690.245    -496.693     303.304
  C     -691.087    -497.062     302.243
  O     -690.696    -497.841     301.372
  N     -692.366    -496.567     302.227
  C     -692.774    -495.768     303.167
  N     -694.074    -495.371     303.138
  C     -691.899    -495.316     304.266
  C     -690.663    -495.815     304.268
  O     -686.762    -493.665     308.144
  O     -689.169    -493.232     307.285
  H     -686.408    -497.042     301.190
  H     -689.294    -492.657     308.077
  H     -692.271    -494.626     305.019
  H     -689.965    -495.546     305.065
  H     -688.966    -498.347     303.057
  H     -688.490    -496.054     301.470
  H     -687.769    -494.742     303.410
  H     -686.229    -497.253     304.276
  H     -694.680    -495.837     302.481
  H     -686.693    -496.398     306.563
  H     -694.530    -494.996     303.961
  H     -685.689    -495.254     305.644
  P     -685.713    -493.682     302.312
  C     -683.357    -494.212     301.363
  O     -684.628    -493.628     301.129
  O     -684.926    -493.101     303.587
  O     -686.990    -492.934     302.059
  H     -685.548    -492.595     304.176
  H     -682.839    -494.313     300.395
  H     -683.466    -495.195     301.810
  H     -682.761    -493.554     302.003
  H     -689.863    -496.394     309.483
  H     -690.427    -494.928     308.717
  H     -689.198    -494.849     309.956

 3  4  5  6  7  8  9  10  11  12  13  23  27  28  29  30  32 0
 6-311+G(2d,p)
 ****
 34  35 0
 6-311+G(2d,p)
 ****
 1  2  14  15  16  17  18  19  20  21  22  24  25  26 0
 3-21G
 ****
 31  33  36  37  38  39  40  41  42  43  44  45  46 0
 3-21G
 ****


