%nproc=1
%NoSave
%Mem=1900MB
#P OB98/GEN NMR

erre ene a

0 1
  C     -441.887     220.609    -495.515
  O     -441.869     220.964    -494.150
  H     -441.689     219.536    -495.599
  H     -441.106     221.153    -496.051
  H     -442.860     220.820    -495.968
  P     -442.444     222.394    -493.717
  C     -440.037     223.302    -493.488
  O     -441.319     223.483    -494.071
  C     -439.331     224.648    -493.297
  O     -438.996     225.194    -494.601
  C     -440.245     225.672    -492.606
  O     -439.504     226.636    -491.867
  C     -440.923     226.357    -493.783
  O     -441.418     227.659    -493.459
  C     -439.798     226.364    -494.819
  N     -441.662     229.176    -498.644
  C     -441.475     229.517    -497.319
  N     -441.830     230.779    -496.966
  N     -441.010     228.695    -496.416
  C     -440.763     227.450    -496.893
  C     -440.926     226.985    -498.176
  C     -441.413     227.916    -499.176
  O     -441.617     227.660    -500.355
  N     -440.581     225.663    -498.277
  C     -440.215     225.322    -497.061
  N     -440.280     226.384    -496.185
  O     -442.391     222.353    -492.117
  O     -443.823     222.715    -494.213
  H     -441.871     228.002    -494.251
  H     -443.018     222.997    -491.741
  H     -441.995     229.857    -499.304
  H     -439.879     224.339    -496.759
  H     -439.155     227.243    -494.684
  H     -441.779     225.753    -494.085
  H     -442.369     231.367    -497.581
  H     -440.976     225.204    -491.952
  H     -442.000     230.941    -495.970
  H     -438.386     224.502    -492.762
  H     -439.466     222.658    -494.167
  H     -440.124     222.773    -492.537
  P     -439.463     226.511    -490.270
  C     -440.763     228.635    -489.365
  O     -440.728     227.251    -489.635
  O     -438.227     227.434    -489.849
  O     -439.313     225.108    -489.770
  H     -437.520     226.894    -489.444
  H     -441.712     228.892    -488.944
  H     -440.617     229.180    -490.274
  H     -439.986     228.883    -488.672

 6  7  8  9  10  11  12  13  14  15  26  29  33  34 0
 6-311+G(2d,p)
 ****
 36  38  39  40  41 0
 6-311+G(2d,p)
 ****
 1  2  3  4  5  16  17  18  19  20  21  22  23  24  25 0
 3-21G
 ****
 27  28  30  31  32  35  37  42  43  44  45  46  47 0
 3-21G
 ****
 48  49 0
 3-21G
 ****


