%nproc=1
%NoSave
%Mem=1900MB
#P OB98/GEN NMR

erre ene a

0 1
  C      232.662     465.353     401.944
  O      231.895     464.995     403.101
  P      232.560     464.585     404.509
  C      231.273     462.397     405.010
  O      231.462     463.759     405.354
  C      229.795     462.010     405.125
  O      229.041     462.580     404.032
  C      229.503     460.515     405.050
  O      229.872     459.829     406.226
  C      227.996     460.521     404.776
  O      227.240     460.642     405.982
  C      227.823     461.799     403.916
  N      227.512     461.523     402.519
  C      226.286     460.882     402.273
  O      225.564     460.524     403.206
  N      225.921     460.661     400.972
  C      226.757     460.944     400.010
  N      226.320     460.716     398.737
  C      228.099     461.480     400.232
  C      228.410     461.744     401.509
  O      233.151     465.737     405.259
  O      233.679     463.488     404.153
  H      234.375     463.507     404.835
  H      227.612     461.405     406.469
  H      228.777     461.661     399.414
  H      229.391     462.153     401.767
  H      227.034     462.436     404.345
  H      227.666     459.606     404.269
  H      230.027     460.089     404.182
  H      229.405     462.422     406.066
  H      225.383     460.359     398.612
  H      231.855     461.776     405.703
  H      226.877     460.923     397.917
  H      231.647     462.224     403.998
  P      230.650     458.437     406.045
  C      229.110     456.642     407.124
  O      230.243     457.482     407.255
  O      232.184     458.815     406.340
  O      230.498     457.816     404.689
  H      232.768     458.328     405.725
  H      229.245     455.754     407.752
  H      228.981     456.313     406.080
  H      228.222     457.178     407.446
  H      232.001     465.584     401.135
  H      233.292     464.534     401.667
  H      233.265     466.208     402.167

 3  4  5  6  7  8  9  10  11  12  13  24  27  28  29  30  32 0
 6-311+G(2d,p)
 ****
 34  35 0
 6-311+G(2d,p)
 ****
 1  2  14  15  16  17  18  19  20  21  22  23  25  26 0
 3-21G
 ****
 31  33  36  37  38  39  40  41  42  43  44  45  46 0
 3-21G
 ****


