%nproc=1
%NoSave
%Mem=1900MB
#P OB98/GEN NMR

erre ene a

0 1
  C      109.372     163.819     -98.108
  O      108.209     163.035     -98.277
  H      109.730     163.703     -97.081
  H      109.141     164.877     -98.285
  H      110.156     163.490     -98.795
  P      107.545     163.032     -99.738
  C      105.824     164.960     -99.392
  O      106.041     163.558     -99.550
  C      104.433     165.207     -98.821
  O      103.438     164.730     -99.752
  C      104.149     164.472     -97.512
  O      104.724     165.137     -96.396
  C      102.625     164.473     -97.498
  O      102.106     165.705     -96.983
  C      102.277     164.335     -98.987
  N       98.841     161.537    -101.509
  C       99.010     162.872    -101.397
  N       99.969     163.541    -100.717
  C      100.813     162.681    -100.122
  C      100.760     161.294    -100.142
  C       99.716     160.714    -100.885
  N       99.520     159.354    -100.974
  N      101.777     160.759     -99.376
  C      102.434     161.801     -98.903
  N      101.890     162.983     -99.336
  O      107.369     161.467    -100.048
  O      108.334     163.727    -100.797
  H      101.130     165.643     -97.043
  H      108.134     161.149    -100.564
  H       98.275     163.490    -101.919
  H      103.298     161.753     -98.246
  H      101.454     164.997     -99.280
  H      102.235     163.665     -96.874
  H      104.506     163.434     -97.577
  H      104.296     166.290     -98.700
  H      105.908     165.446    -100.373
  H      106.595     165.360     -98.726
  H       98.736     159.008    -101.501
  H      100.104     158.740    -100.420
  P      105.718     164.306     -95.448
  C      104.288     164.565     -93.288
  O      105.510     164.845     -93.947
  O      107.162     164.858     -95.855
  O      105.623     162.822     -95.591
  H      107.610     164.236     -96.465
  H      104.307     164.989     -92.306
  H      104.156     163.506     -93.217
  H      103.478     164.989     -93.844

 6  7  8  9  10  11  12  13  14  15  25  28  32  33  34  35 0
 6-311+G(2d,p)
 ****
 36  37  40 0
 6-311+G(2d,p)
 ****
 1  2  3  4  5  16  17  18  19  20  21  22  23  24 0
 3-21G
 ****
 26  27  29  30  31  38  39 41  42  43  44  45  46  47  48 0
 3-21G
 ****


