%nproc=1
%NoSave
%Mem=1900MB
#P OB98/GEN NMR

erre ene a

0 1
  C      760.998     632.376     180.511
  O      761.032     633.407     181.486
  H      760.573     631.483     180.967
  H      762.013     632.142     180.174
  H      760.381     632.678     179.673
  P      761.734     634.780     181.043
  C      762.734     635.043     183.452
  O      762.988     634.906     182.057
  C      763.609     634.080     184.242
  O      763.146     632.720     184.070
  C      765.075     634.058     183.816
  O      765.819     635.163     184.289
  C      765.512     632.740     184.450
  O      765.666     632.931     185.871
  C      764.298     631.839     184.119
  N      764.443     631.115     182.861
  C      764.763     629.749     182.950
  O      764.919     629.213     184.040
  N      764.959     629.037     181.786
  C      764.806     629.623     180.629
  N      765.008     628.869     179.513
  C      764.463     631.053     180.481
  C      764.304     631.726     181.635
  O      760.733     635.909     181.584
  O      762.090     634.896     179.604
  H      764.841     633.360     186.187
  H      761.149     636.805     181.493
  H      764.372     631.504     179.505
  H      764.039     632.787     181.609
  H      764.132     631.107     184.920
  H      766.468     632.377     184.071
  H      765.162     633.965     182.721
  H      763.511     634.340     185.309
  H      765.311     627.903     179.645
  H      761.681     634.830     183.629
  H      765.062     629.260     178.582
  H      762.946     636.070     183.759
  P      766.877     635.829     183.286
  C      768.055     637.238     185.156
  O      768.169     636.220     184.163
  O      766.212     637.271     182.967
  O      767.155     635.059     182.028
  H      766.402     637.550     182.047
  H      768.999     637.370     185.641
  H      767.320     636.951     185.879
  H      767.760     638.156     184.693

 6  7  8  9  10  11  12  13  14  15  16  26  30  31  32  33  35 0
 6-311+G(2d,p)
 ****
 37  38 0
 6-311+G(2d,p)
 ****
 1  2  3  4  5  17  18  19  20  21  22  23  24  25 0
 3-21G
 ****
 27  28  29  34  36  39  40  41  42  43  44  45  46 0
 3-21G
 ****


