%nproc=1
%NoSave
%Mem=1900MB
#P OB98/GEN NMR

erre ene a

0 1
  C       66.309       6.146      29.847
  O       66.700       7.457      29.495
  H       66.888       5.438      29.248
  H       65.248       5.998      29.634
  H       66.507       5.953      30.904
  P       66.100       8.692      30.321
  C       64.197       8.934      28.601
  O       65.263       9.582      29.282
  C       63.825       9.723      27.349
  O       62.783       9.041      26.618
  C       63.285      11.119      27.637
  O       64.331      12.001      27.991
  C       62.595      11.427      26.317
  O       63.545      11.837      25.321
  C       61.989      10.051      25.955
  N       60.577       9.938      26.323
  C       59.683      10.684      25.561
  O       60.031      11.409      24.632
  N       58.369      10.605      25.939
  C       57.892       9.942      27.032
  O       56.749      10.076      27.457
  C       58.869       9.112      27.752
  C       60.149       9.160      27.381
  O       67.076       9.447      31.159
  O       64.954       8.021      31.218
  H       65.288       7.897      32.127
  H       63.030      12.058      24.521
  H       57.718      11.180      25.423
  H       58.517       8.519      28.587
  H       60.893       8.580      27.916
  H       62.076       9.866      24.877
  H       61.862      12.231      26.409
  H       62.529      11.074      28.429
  H       64.711       9.775      26.703
  H       63.332       8.888      29.272
  H       64.502       7.915      28.343
  P       64.690      12.286      29.524
  C       62.497      13.504      30.045
  O       63.912      13.611      29.979
  O       66.148      12.283      29.843
  O       63.929      11.127      30.328
  H       64.568      10.668      30.907
  H       62.083      14.440      30.357
  H       62.229      12.743      30.748
  H       62.113      13.248      29.079

 6  7  8  9  10  11  12  13  14  15  16  27  31  32  33  34  35 0
 6-311+G(2d,p)
 ****
 36  37 0
 6-311+G(2d,p)
 ****
 1  2  3  4  5  17  18  19  20  21  22  23  24  25 0
 3-21G
 ****
 26  28  29  30  38  39  40  41  42  43  44  45 0
 3-21G
 ****


