%nproc=1
%NoSave
%Mem=1900MB
#P OB98/GEN NMR

erre ene a

0 1
  C     -246.574     375.439     215.496
  O     -245.512     376.220     216.010
  H     -247.491     375.706     216.022
  H     -246.370     374.377     215.660
  H     -246.716     375.629     214.430
  P     -244.086     376.156     215.282
  C     -244.507     377.772     213.312
  O     -243.869     377.576     214.565
  C     -243.494     378.224     212.254
  O     -244.165     378.261     210.950
  C     -242.908     379.630     212.498
  O     -241.580     379.629     211.941
  C     -243.848     380.486     211.672
  O     -243.381     381.797     211.498
  C     -243.974     379.594     210.426
  N     -245.049     379.946     209.510
  C     -244.788     380.906     208.540
  O     -243.704     381.478     208.398
  N     -245.830     381.212     207.703
  C     -247.074     380.654     207.734
  O     -247.961     380.940     206.939
  C     -247.297     379.647     208.787
  C     -246.291     379.345     209.607
  O     -243.849     374.965     214.414
  O     -243.039     376.215     216.496
  H     -242.697     375.319     216.673
  H     -243.091     382.151     212.364
  H     -245.652     381.903     206.992
  H     -248.275     379.193     208.843
  H     -246.423     378.594     210.387
  H     -243.023     379.588     209.877
  H     -244.815     380.573     212.185
  H     -242.856     379.895     213.555
  H     -242.702     377.469     212.177
  H     -245.278     378.543     213.436
  H     -244.986     376.837     213.002
  P     -240.253     379.844     212.818
  C     -239.991     377.300     213.204
  O     -239.381     378.498     212.743
  O     -240.515     380.309     214.213
  O     -239.380     380.914     212.007
  H     -238.805     381.400     212.625
  H     -239.304     376.486     213.098
  H     -240.870     377.102     212.627
  H     -240.258     377.409     214.234

 6  7  8  9  10  11  12  13  14  15  16  27  31  32  33  34  35 0
 6-311+G(2d,p)
 ****
 36  37 0
 6-311+G(2d,p)
 ****
 1  2  3  4  5  17  18  19  20  21  22  23  24  25 0
 3-21G
 ****
 26  28  29  30  38  39  40  41  42  43  44  45 0
 3-21G
 ****


