%nproc=1
%NoSave
%Mem=1900MB
#P OB98/GEN NMR

erre ene a

0 1
  C     -112.290     373.797    -292.413
  O     -113.004     372.582    -292.316
  H     -112.735     374.406    -293.204
  H     -111.249     373.590    -292.671
  H     -112.337     374.355    -291.472
  P     -112.729     371.672    -291.024
  C     -115.255     371.397    -290.494
  O     -114.032     370.751    -290.812
  C     -116.360     370.365    -290.285
  O     -116.866     369.940    -291.580
  C     -115.899     369.106    -289.532
  O     -116.947     368.681    -288.648
  C     -115.721     368.077    -290.636
  O     -115.851     366.734    -290.167
  C     -116.807     368.501    -291.621
  N     -118.557     365.735    -295.451
  C     -119.157     366.082    -294.252
  N     -120.409     365.611    -294.041
  N     -118.575     366.822    -293.346
  C     -117.340     367.247    -293.710
  C     -116.641     366.967    -294.863
  C     -117.281     366.121    -295.844
  O     -116.798     365.759    -296.914
  N     -115.398     367.558    -294.846
  C     -115.351     368.189    -293.690
  N     -116.510     368.036    -292.967
  O     -112.810     372.719    -289.815
  O     -111.430     370.936    -291.023
  H     -115.255     366.637    -289.390
  H     -111.941     372.787    -289.381
  H     -119.049     365.146    -296.111
  H     -114.510     368.762    -293.319
  H     -117.793     368.109    -291.350
  H     -114.721     368.186    -291.080
  H     -120.930     365.082    -294.711
  H     -114.983     369.260    -288.960
  H     -120.876     365.891    -293.185
  H     -117.195     370.847    -289.759
  H     -115.527     372.058    -291.324
  H     -115.125     371.992    -289.585
  P     -116.511     368.267    -287.154
  C     -118.573     369.369    -286.039
  O     -117.841     368.170    -286.255
  O     -115.775     369.578    -286.614
  O     -115.617     367.072    -287.102
  H     -114.815     369.425    -286.557
  H     -119.427     369.160    -285.429
  H     -118.894     369.765    -286.980
  H     -117.948     370.084    -285.546

 6  7  8  9  10  11  12  13  14  15  26  29  33  34 0
 6-311+G(2d,p)
 ****
 36  38  39  40  41 0
 6-311+G(2d,p)
 ****
 1  2  3  4  5  16  17  18  19  20  21  22  23  24  25 0
 3-21G
 ****
 27  28  30  31  32  35  37  42  43  44  45  46  47 0
 3-21G
 ****
 48  49 0
 3-21G
 ****


