%nproc=1
%NoSave
%Mem=1900MB
#P OB98/GEN NMR

erre ene a

0 1
  C       -5.610     -17.520     171.051
  O       -6.659     -18.460     171.118
  H       -4.659     -18.045     171.166
  H       -5.707     -16.794     171.863
  H       -5.614     -17.003     170.087
  P       -8.144     -17.932     170.815
  C       -8.464     -17.932     168.239
  O       -8.618     -18.646     169.456
  C       -8.960     -18.773     167.062
  O       -9.114     -17.913     165.904
  C       -8.013     -19.913     166.679
  O       -8.795     -21.052     166.309
  C       -7.285     -19.381     165.458
  O       -6.793     -20.421     164.614
  C       -8.359     -18.490     164.821
  N       -7.766     -17.465     163.966
  C       -7.252     -17.891     162.739
  O       -7.303     -19.082     162.425
  N       -6.642     -16.976     161.921
  C       -6.481     -15.756     162.331
  N       -5.841     -14.902     161.487
  C       -6.946     -15.277     163.647
  C       -7.581     -16.173     164.402
  O       -7.915     -16.414     170.370
  O       -9.109     -18.054     171.947
  H       -6.031     -20.847     165.062
  H       -8.671     -15.852     170.627
  H       -6.765     -14.258     163.955
  H       -7.952     -15.915     165.387
  H       -9.052     -19.092     164.218
  H       -6.429     -18.775     165.777
  H       -7.324     -20.190     167.481
  H       -9.956     -19.159     167.307
  H       -5.520     -15.273     160.600
  H       -7.403     -17.706     168.090
  H       -5.620     -13.945     161.720
  H       -9.021     -16.991     168.296
  P       -8.838     -22.268     167.353
  C      -10.703     -21.409     168.945
  O      -10.320     -22.356     167.956
  O       -7.960     -21.732     168.579
  O       -8.298     -23.548     166.806
  H       -7.108     -22.206     168.611
  H      -11.712     -21.596     169.246
  H      -10.629     -20.421     168.541
  H      -10.056     -21.497     169.792

 6  7  8  9  10  11  12  13  14  15  16  26  30  31  32  33  35 0
 6-311+G(2d,p)
 ****
 37  38 0
 6-311+G(2d,p)
 ****
 1  2  3  4  5  17  18  19  20  21  22  23  24  25 0
 3-21G
 ****
 27  28  29  34  36  39  40  41  42  43  44  45  46 0
 3-21G
 ****


