%nproc=1
%NoSave
%Mem=1900MB
#P OB98/GEN NMR

erre ene a

0 1
  C      161.586      34.597      14.687
  O      162.110      34.983      13.428
  P      161.243      34.644      12.121
  C      160.384      32.391      11.066
  O      161.171      33.044      12.049
  C      160.183      30.922      11.442
  O      159.639      30.826      12.775
  C      159.205      30.168      10.550
  O      159.789      29.815       9.306
  C      158.844      28.985      11.441
  O      159.871      27.981      11.379
  C      158.823      29.637      12.839
  N      157.474      29.944      13.311
  C      156.703      28.859      13.716
  O      157.107      27.699      13.691
  N      155.434      29.155      14.138
  C      154.852      30.390      14.132
  O      153.696      30.592      14.479
  C      155.706      31.492      13.661
  C      156.956      31.223      13.280
  O      162.272      35.059      10.969
  O      159.932      35.354      12.086
  H      163.196      34.983      11.266
  H      160.722      28.448      11.496
  H      154.862      28.389      14.458
  H      155.276      32.485      13.634
  H      157.595      32.021      12.921
  H      159.302      28.977      13.572
  H      157.902      28.509      11.150
  H      158.312      30.780      10.376
  H      161.164      30.430      11.439
  H      160.895      32.455      10.101
  H      159.419      32.902      10.986
  P      158.826      29.090       8.240
  C      157.509      26.834       8.304
  O      158.580      27.608       8.795
  O      159.824      28.891       7.005
  O      157.593      29.870       7.919
  H      160.710      28.599       7.279
  H      157.712      25.781       8.515
  H      157.386      26.960       7.225
  H      156.586      27.124       8.812
  H      162.267      34.886      15.460
  H      161.452      33.536      14.707
  H      160.643      35.078      14.844

 3  4  5  6  7  8  9  10  11  12  13  24  28  29  30  31  32 0
 6-311+G(2d,p)
 ****
 33  34 0
 6-311+G(2d,p)
 ****
 1  2  14  15  16  17  18  19  20  21  22  23  25  26  27 0
 3-21G
 ****
 35  36  37  38  39  40  41  42  43  44  45 0
 3-21G
 ****


