%nproc=1
%NoSave
%Mem=1900MB
#P OB98/GEN NMR

erre ene a

0 1
  C      590.113    -261.804     168.337
  O      590.371    -262.597     169.477
  H      589.224    -262.185     167.840
  H      590.958    -261.868     167.649
  H      589.938    -260.758     168.621
  P      591.430    -262.019     170.542
  C      592.358    -264.375     171.142
  O      591.699    -263.196     171.601
  C      592.419    -265.419     172.251
  O      593.355    -265.009     173.278
  C      591.091    -265.662     172.965
  O      590.273    -266.578     172.241
  C      591.571    -266.264     174.274
  O      591.944    -267.645     174.056
  C      592.821    -265.426     174.567
  N      591.684    -263.707     179.210
  C      591.783    -265.007     178.745
  N      591.543    -265.994     179.641
  N      592.091    -265.314     177.509
  C      592.286    -264.228     176.720
  C      592.206    -262.903     177.068
  C      591.888    -262.573     178.434
  O      591.795    -261.443     178.904
  N      592.472    -262.088     175.995
  C      592.684    -262.926     174.996
  N      592.584    -264.245     175.382
  O      590.565    -260.952     171.363
  O      592.641    -261.387     169.946
  H      592.080    -268.042     174.938
  H      590.782    -260.052     171.055
  H      591.435    -263.524     180.168
  H      592.918    -262.631     173.982
  H      593.603    -266.002     175.075
  H      590.802    -266.264     175.051
  H      591.274    -265.825     180.597
  H      590.557    -264.720     173.166
  H      591.614    -266.950     179.321
  H      592.803    -266.355     171.817
  H      593.379    -264.111     170.834
  H      591.812    -264.778     170.284
  P      588.767    -266.143     171.897
  C      587.504    -267.609     173.628
  O      587.830    -267.392     172.265
  O      588.766    -266.120     170.302
  O      588.333    -264.836     172.465
  H      588.664    -265.206     169.971
  H      586.878    -268.472     173.712
  H      586.987    -266.754     174.011
  H      588.402    -267.764     174.189

 6  7  8  9  10  11  12  13  14  15  26  29  33  34 0
 6-311+G(2d,p)
 ****
 36  38  39  40  41 0
 6-311+G(2d,p)
 ****
 1  2  3  4  5  16  17  18  19  20  21  22  23  24  25 0
 3-21G
 ****
 27  28  30  31  32  35  37  42  43  44  45  46  47 0
 3-21G
 ****
 48  49 0
 3-21G
 ****


