%nproc=1
%NoSave
%Mem=1900MB
#P OB98/GEN NMR

erre ene a

0 1
  C     -925.624    -943.889    -231.909
  O     -925.642    -943.358    -233.223
  H     -924.637    -943.715    -231.469
  H     -925.799    -944.970    -231.921
  H     -926.377    -943.395    -231.289
  P     -926.934    -943.634    -234.135
  C     -928.017    -941.421    -233.346
  O     -928.128    -942.837    -233.429
  C     -929.091    -940.758    -234.206
  O     -930.399    -941.092    -233.711
  C     -929.008    -939.231    -234.181
  O     -927.949    -938.763    -234.987
  C     -930.407    -938.874    -234.663
  O     -930.517    -938.978    -236.087
  C     -931.266    -939.951    -233.964
  N     -931.885    -939.480    -232.719
  C     -933.242    -939.216    -232.781
  O     -933.867    -939.387    -233.832
  N     -933.880    -938.750    -231.651
  C     -933.204    -938.565    -230.557
  N     -933.876    -938.101    -229.479
  C     -931.752    -938.841    -230.460
  C     -931.160    -939.293    -231.557
  O     -927.237    -945.069    -234.453
  O     -926.647    -942.769    -235.449
  H     -929.830    -938.406    -236.453
  H     -926.167    -943.300    -236.116
  H     -931.221    -938.688    -229.525
  H     -930.094    -939.514    -231.566
  H     -932.062    -940.311    -234.627
  H     -930.681    -937.855    -234.378
  H     -928.905    -938.871    -233.152
  H     -928.999    -941.130    -235.230
  H     -934.855    -937.905    -229.606
  H     -927.009    -941.144    -233.704
  H     -933.474    -938.013    -228.549
  H     -928.104    -941.076    -232.309
  P     -926.661    -938.077    -234.328
  C     -925.265    -940.094    -235.138
  O     -925.636    -939.294    -234.029
  O     -926.940    -937.188    -233.166
  O     -925.956    -937.336    -235.557
  H     -926.454    -936.511    -235.812
  H     -924.590    -940.859    -234.816
  H     -924.787    -939.483    -235.875
  H     -926.139    -940.544    -235.561

 6  7  8  9  10  11  12  13  14  15  16  26  30  31  32  33  35 0
 6-311+G(2d,p)
 ****
 37  38 0
 6-311+G(2d,p)
 ****
 1  2  3  4  5  17  18  19  20  21  22  23  24  25 0
 3-21G
 ****
 27  28  29  34  36  39  40  41  42  43  44  45  46 0
 3-21G
 ****


