%nproc=1
%NoSave
%Mem=1900MB
#P OB98/GEN NMR

erre ene a

0 1
  C     -276.729     444.168    -150.304
  O     -276.288     445.258    -151.091
  H     -277.318     443.500    -150.936
  H     -277.357     444.518    -149.480
  H     -275.872     443.611    -149.911
  P     -275.430     446.410    -150.383
  C     -273.580     446.704    -152.163
  O     -274.751     447.254    -151.571
  C     -272.779     447.800    -152.865
  O     -273.456     448.227    -154.065
  C     -272.564     449.057    -152.022
  O     -271.486     448.874    -151.117
  C     -272.249     450.072    -153.109
  O     -270.894     449.884    -153.571
  C     -273.242     449.657    -154.218
  N     -276.600     452.419    -156.837
  C     -275.321     452.022    -157.179
  N     -274.861     452.450    -158.375
  N     -274.557     451.286    -156.417
  C     -275.120     450.993    -155.217
  C     -276.368     451.346    -154.754
  C     -277.230     452.105    -155.638
  O     -278.382     452.454    -155.387
  N     -276.555     450.948    -153.455
  C     -275.439     450.308    -153.150
  N     -274.530     450.320    -154.180
  O     -274.462     445.963    -149.328
  O     -276.528     447.420    -149.803
  H     -270.758     450.509    -154.308
  H     -276.761     447.196    -148.883
  H     -277.140     452.996    -157.464
  H     -275.240     449.826    -152.202
  H     -272.826     449.819    -155.219
  H     -272.337     451.100    -152.767
  H     -275.344     453.135    -158.939
  H     -273.483     449.360    -151.508
  H     -273.905     452.215    -158.619
  H     -271.818     447.366    -153.173
  H     -273.897     445.946    -152.885
  H     -272.953     446.224    -151.402
  P     -271.661     449.097    -149.536
  C     -270.591     446.804    -149.013
  O     -270.517     448.207    -148.850
  O     -273.039     448.851    -149.023
  O     -271.125     450.581    -149.283
  H     -271.813     451.272    -149.439
  H     -269.770     446.342    -148.506
  H     -270.548     446.563    -150.055
  H     -271.511     446.445    -148.602

 6  7  8  9  10  11  12  13  14  15  26  29  33  34 0
 6-311+G(2d,p)
 ****
 36  38  39  40  41 0
 6-311+G(2d,p)
 ****
 1  2  3  4  5  16  17  18  19  20  21  22  23  24  25 0
 3-21G
 ****
 27  28  30  31  32  35  37  42  43  44  45  46  47 0
 3-21G
 ****
 48  49 0
 3-21G
 ****


