%nproc=1
%NoSave
%Mem=1900MB
#P OB98/GEN NMR

erre ene a

0 1
  C     -401.004     712.322    -285.753
  O     -400.090     712.237    -284.677
  H     -400.889     713.276    -286.277
  H     -400.795     711.508    -286.454
  H     -402.027     712.221    -285.383
  P     -400.160     713.418    -283.592
  C     -400.375     712.106    -281.366
  O     -401.043     712.855    -282.374
  C     -400.401     712.861    -280.042
  O     -401.772     713.128    -279.652
  C     -399.793     712.111    -278.862
  O     -398.374     712.168    -278.871
  C     -400.387     712.890    -277.689
  O     -399.626     714.097    -277.484
  C     -401.793     713.242    -278.203
  N     -403.906     711.201    -273.987
  C     -402.871     712.046    -274.154
  N     -402.351     712.540    -275.299
  C     -403.043     712.087    -276.361
  C     -404.125     711.219    -276.343
  C     -404.556     710.768    -275.095
  N     -405.617     709.896    -274.926
  N     -404.577     710.988    -277.625
  C     -403.786     711.693    -278.406
  N     -402.831     712.369    -277.690
  O     -401.129     714.498    -284.273
  O     -398.851     714.019    -283.207
  H     -398.697     713.825    -277.370
  H     -400.820     715.392    -284.032
  H     -402.383     712.378    -273.241
  H     -403.865     711.747    -279.486
  H     -402.063     714.276    -277.958
  H     -400.376     712.329    -276.760
  H     -400.156     711.072    -278.824
  H     -399.900     713.828    -280.188
  H     -399.336     711.943    -281.660
  H     -405.996     709.761    -274.010
  H     -406.096     709.575    -275.768
  H     -400.878     711.138    -281.256
  P     -397.572     710.835    -278.473
  C     -396.496     710.476    -280.817
  O     -397.420     710.004    -279.840
  O     -398.661     709.991    -277.651
  O     -396.326     711.045    -277.692
  H     -398.208     709.376    -277.043
  H     -396.508     709.822    -281.664
  H     -395.512     710.497    -280.397
  H     -396.774     711.463    -281.124

 6  7  8  9  10  11  12  13  14  15  25  28  32  33  34  35 0
 6-311+G(2d,p)
 ****
 36  39  40 0
 6-311+G(2d,p)
 ****
 1  2  3  4  5  16  17  18  19  20  21  22  23  24 0
 3-21G
 ****
 26  27  29  30  31  37  38  41  42  43  44  45  46  47  48 0
 3-21G
 ****


