%nproc=1
%NoSave
%Mem=1900MB
#P OB98/GEN NMR

erre ene a

0 1
  C      131.307     552.269    -102.094
  O      132.072     551.205    -101.565
  H      130.326     551.884    -102.388
  H      131.796     552.689    -102.977
  H      131.169     553.044    -101.335
  P      133.593     551.530    -101.167
  C      133.687     549.100    -100.244
  O      134.342     550.126    -100.989
  C      133.999     547.743    -100.860
  O      133.396     547.651    -102.176
  C      135.484     547.487    -101.090
  O      136.159     547.103     -99.900
  C      135.437     546.370    -102.111
  O      135.275     545.083    -101.496
  C      134.193     546.740    -102.956
  N      134.571     547.308    -104.249
  C      135.248     546.442    -105.106
  O      135.533     545.277    -104.818
  N      135.644     546.982    -106.304
  C      135.470     548.277    -106.699
  O      135.894     548.707    -107.763
  C      134.757     549.145    -105.744
  C      134.352     548.630    -104.582
  O      133.465     552.089     -99.675
  O      134.281     552.500    -102.071
  H      133.600     553.055     -99.671
  H      135.945     545.039    -100.786
  H      136.130     546.371    -106.937
  H      134.605     550.176    -106.025
  H      133.838     549.251    -103.855
  H      133.581     545.852    -103.133
  H      136.355     546.334    -102.699
  H      135.954     548.370    -101.543
  H      133.569     546.960    -100.228
  H      132.603     549.261    -100.268
  H      134.027     549.148     -99.207
  P      137.744     547.354     -99.824
  C      138.118     545.610     -97.880
  O      138.365     546.004     -99.218
  O      137.815     548.408     -98.623
  O      138.328     547.822    -101.117
  H      137.068     548.311     -98.008
  H      138.622     544.687     -97.681
  H      137.066     545.480     -97.735
  H      138.480     546.365     -97.213

 6  7  8  9  10  11  12  13  14  15  16  27  31  32  33  34  35 0
 6-311+G(2d,p)
 ****
 36  37 0
 6-311+G(2d,p)
 ****
 1  2  3  4  5  17  18  19  20  21  22  23  24  25 0
 3-21G
 ****
 26  28  29  30  38  39  40  41  42  43  44  45 0
 3-21G
 ****


