%nproc=1
%NoSave
%Mem=1900MB
#P OB98/GEN NMR

erre ene a

0 1
  C       65.815    -877.268      80.347
  O       65.499    -876.436      81.447
  H       65.438    -878.273      80.548
  H       66.896    -877.319      80.221
  H       65.349    -876.891      79.432
  P       65.783    -874.869      81.271
  C       67.220    -874.767      83.434
  O       67.165    -874.565      82.032
  C       68.432    -874.060      84.027
  O       69.651    -874.696      83.571
  C       68.554    -872.587      83.648
  O       67.742    -871.760      84.471
  C       70.028    -872.353      83.905
  O       70.258    -872.213      85.319
  C       70.652    -873.659      83.388
  N       74.538    -873.142      80.174
  C       74.519    -873.118      81.560
  N       75.705    -872.911      82.176
  N       73.442    -873.267      82.272
  C       72.331    -873.450      81.526
  C       72.214    -873.502      80.153
  C       73.421    -873.340      79.369
  O       73.500    -873.377      78.146
  N       70.921    -873.706      79.761
  C       70.246    -873.774      80.894
  N       71.049    -873.612      81.991
  O       64.689    -874.181      82.223
  O       65.684    -874.351      79.875
  H       69.639    -871.537      85.636
  H       64.386    -873.349      81.807
  H       75.399    -873.003      79.667
  H       69.175    -873.932      80.964
  H       71.545    -873.950      83.966
  H       70.406    -871.438      83.429
  H       76.566    -872.737      81.678
  H       68.340    -872.429      82.581
  H       75.721    -872.915      83.179
  H       68.390    -874.168      85.116
  H       67.286    -875.838      83.643
  H       66.296    -874.377      83.877
  P       67.480    -870.250      83.975
  C       68.433    -869.345      86.218
  O       68.516    -869.343      84.794
  O       66.073    -869.896      84.654
  O       67.460    -870.065      82.494
  H       65.637    -869.188      84.155
  H       69.184    -868.697      86.620
  H       68.587    -870.339      86.583
  H       67.466    -869.001      86.519

 6  7  8  9  10  11  12  13  14  15  26  29  33  34 0
 6-311+G(2d,p)
 ****
 36  38  39  40  41 0
 6-311+G(2d,p)
 ****
 1  2  3  4  5  16  17  18  19  20  21  22  23  24  25 0
 3-21G
 ****
 27  28  30  31  32  35  37  42  43  44  45  46  47 0
 3-21G
 ****
 48  49 0
 3-21G
 ****


