%nproc=1
%NoSave
%Mem=1900MB
#P OB98/GEN NMR

erre ene a

0 1
  C      608.632     154.595      49.304
  O      608.953     154.890      47.938
  P      609.902     153.872      47.150
  C      607.846     153.079      45.767
  O      608.993     152.706      46.519
  C      607.486     151.974      44.763
  O      608.539     151.778      43.795
  C      607.265     150.613      45.400
  O      605.953     150.491      45.940
  C      607.425     149.691      44.197
  O      606.211     149.684      43.425
  C      608.548     150.375      43.415
  N      613.395     150.101      41.789
  C      612.304     150.698      41.267
  N      611.042     150.711      41.751
  C      610.970     150.030      42.904
  C      612.000     149.368      43.558
  C      613.266     149.419      42.954
  N      614.380     148.808      43.489
  N      611.543     148.774      44.710
  C      610.263     149.078      44.764
  N      609.866     149.832      43.691
  O      610.687     153.123      48.328
  O      610.844     154.532      46.200
  H      606.376     149.129      42.639
  H      611.595     152.911      48.037
  H      612.459     151.236      40.337
  H      609.586     148.782      45.561
  H      608.399     150.323      42.331
  H      607.626     148.659      44.486
  H      608.038     150.394      46.153
  H      606.575     152.282      44.230
  H      608.020     154.017      45.246
  H      615.258     148.915      43.012
  H      614.289     148.323      44.364
  H      607.011     153.256      46.458
  P      605.827     150.173      47.507
  C      604.188     152.166      47.753
  O      605.369     151.544      48.195
  O      607.358     149.992      47.961
  O      605.000     148.973      47.826
  H      607.409     149.365      48.706
  H      603.867     152.894      48.504
  H      603.385     151.436      47.605
  H      604.374     152.698      46.810
  H      607.994     155.361      49.694
  H      609.532     154.553      49.881
  H      608.130     153.651      49.357

 3  4  5  6  7  8  9  10  11  12  22  25  29  30  31  32 0
 6-311+G(2d,p)
 ****
 33  36  37 0
 6-311+G(2d,p)
 ****
 1  2  13  14  15  16  17  18  19  20  21  23  24  26 0
 3-21G
 ****
 27  28  34  35  38  39  40  41  42  43  44  45  46  47  48 0
 3-21G
 ****


