%nproc=1
%NoSave
%Mem=1900MB
#P OB98/GEN NMR

erre ene a

0 1
  C      622.154     619.350     241.714
  O      623.171     619.744     242.612
  H      621.409     620.147     241.652
  H      621.667     618.443     242.079
  H      622.565     619.173     240.715
  P      624.487     618.831     242.680
  C      625.944     620.977     242.505
  O      625.666     619.681     241.999
  C      626.532     621.855     241.405
  O      627.967     621.608     241.333
  C      625.955     621.587     240.007
  O      625.878     622.828     239.303
  C      627.011     620.710     239.361
  O      626.988     620.737     237.940
  C      628.287     621.307     239.957
  N      629.431     620.399     239.876
  C      630.315     620.586     238.818
  O      630.258     621.509     238.006
  N      631.313     619.651     238.711
  C      631.488     618.567     239.522
  O      632.390     617.749     239.360
  C      630.514     618.418     240.610
  C      629.543     619.322     240.732
  O      624.183     617.686     241.603
  O      624.818     618.280     244.025
  H      623.729     616.935     242.025
  H      627.693     620.133     237.626
  H      631.966     619.773     237.953
  H      630.619     617.561     241.261
  H      628.792     619.232     241.511
  H      628.531     622.255     239.466
  H      626.881     619.670     239.683
  H      624.968     621.106     240.018
  H      626.404     622.906     241.684
  H      626.663     620.899     243.324
  H      625.015     621.420     242.888
  P      624.849     622.914     238.073
  C      623.897     625.257     238.770
  O      623.661     623.871     238.573
  O      624.215     621.447     238.092
  O      625.505     623.309     236.789
  H      624.121     621.087     238.990
  H      622.996     625.729     239.102
  H      624.213     625.700     237.848
  H      624.660     625.387     239.508

 6  7  8  9  10  11  12  13  14  15  16  27  31  32  33  34  35 0
 6-311+G(2d,p)
 ****
 36  37 0
 6-311+G(2d,p)
 ****
 1  2  3  4  5  17  18  19  20  21  22  23  24  25 0
 3-21G
 ****
 26  28  29  30  38  39  40  41  42  43  44  45 0
 3-21G
 ****


