%nproc=1
%NoSave
%Mem=1900MB
#P OB98/GEN NMR

erre ene a

0 1
  C      554.629     360.577     346.966
  O      556.060     360.529     347.105
  P      556.653     360.229     348.564
  C      556.289     362.602     349.562
  O      557.228     361.641     349.099
  C      556.872     363.396     350.738
  O      557.225     362.495     351.803
  C      558.176     364.150     350.396
  O      557.920     365.381     349.731
  C      558.750     364.383     351.803
  O      558.115     365.531     352.379
  C      558.323     363.101     352.546
  N      562.497     361.740     355.070
  C      561.677     362.818     355.271
  N      561.969     363.656     356.288
  N      560.625     363.066     354.512
  C      560.421     362.141     353.553
  C      561.192     361.046     353.248
  C      562.370     360.798     354.069
  O      563.176     359.904     353.888
  N      560.640     360.322     352.220
  C      559.536     360.979     351.884
  N      559.384     362.119     352.661
  O      557.962     359.382     348.238
  O      555.740     359.511     349.502
  H      558.276     366.277     351.755
  H      558.202     358.814     349.025
  H      563.279     361.583     355.695
  H      558.840     360.676     351.132
  H      557.952     363.338     353.549
  H      559.818     364.562     351.783
  H      562.676     363.434     356.973
  H      558.874     363.505     349.833
  H      561.340     364.423     356.471
  H      556.117     364.093     351.095
  H      555.380     362.084     349.913
  H      556.016     363.271     348.759
  P      558.272     365.401     348.151
  C      560.775     365.202     348.830
  O      559.790     365.907     348.094
  O      557.412     366.658     347.622
  O      557.957     364.136     347.422
  H      557.234     366.550     346.687
  H      560.583     364.118     348.819
  H      560.813     365.568     349.853
  H      561.750     365.372     348.356
  H      554.376     360.784     345.947
  H      554.235     361.348     347.595
  H      554.211     359.635     347.253

 3  4  5  6  7  8  9  10  11  12  23  26  30  31  33  0
 6-311+G(2d,p)
 ****
 35  36  37  38 0
 6-311+G(2d,p)
 ****
 1  2  13  14  15  16  17  18  19  20  21  22  24  25  27  28  29 0
 3-21G
 ****
 32  34  39  40  41  42  43  44  45  46  47  48  49 0
 3-21G
 ****


