%nproc=1
%NoSave
%Mem=1900MB
#P OB98/GEN NMR

erre ene a

0 1
  C     -906.827    -240.934    -172.231
  O     -907.943    -240.148    -171.861
  H     -907.168    -241.724    -172.907
  H     -906.382    -241.398    -171.345
  H     -906.085    -240.323    -172.744
  P     -907.654    -238.909    -170.876
  C     -909.710    -237.684    -171.895
  O     -909.042    -238.123    -170.720
  C     -911.192    -237.452    -171.587
  O     -911.869    -238.722    -171.436
  C     -911.436    -236.707    -170.286
  O     -911.234    -235.312    -170.407
  C     -912.889    -237.077    -170.006
  O     -913.792    -236.242    -170.732
  C     -912.964    -238.519    -170.526
  N     -915.706    -241.906    -167.859
  C     -916.014    -241.141    -168.937
  N     -915.219    -240.274    -169.597
  C     -913.990    -240.257    -169.063
  C     -913.524    -240.976    -167.971
  C     -914.448    -241.838    -167.353
  N     -914.157    -242.602    -166.241
  N     -912.209    -240.659    -167.700
  C     -911.874    -239.759    -168.603
  N     -912.915    -239.496    -169.455
  O     -906.765    -237.930    -171.772
  O     -906.973    -239.270    -169.597
  H     -913.686    -235.337    -170.369
  H     -905.822    -238.038    -171.545
  H     -917.021    -241.246    -169.307
  H     -910.909    -239.286    -168.683
  H     -913.893    -238.708    -171.089
  H     -913.123    -236.986    -168.945
  H     -910.812    -237.121    -169.485
  H     -911.643    -236.923    -172.439
  H     -909.614    -238.450    -172.673
  H     -909.239    -236.762    -172.244
  H     -914.877    -243.140    -165.818
  H     -913.248    -242.469    -165.794
  P     -909.870    -234.707    -169.832
  C     -910.062    -232.731    -171.536
  O     -909.858    -233.139    -170.188
  O     -908.739    -235.313    -170.784
  O     -909.612    -235.011    -168.393
  H     -907.935    -235.489    -170.264
  H     -910.024    -231.663    -171.595
  H     -911.019    -233.073    -171.871
  H     -909.297    -233.150    -172.155

 6  7  8  9  10  11  12  13  14  15  25  28  32  33  34  35 0
 6-311+G(2d,p)
 ****
 36  37  40 0
 6-311+G(2d,p)
 ****
 1  2  3  4  5  16  17  18  19  20  21  22  23  24 0
 3-21G
 ****
 26  27  29  30  31  38  39 41  42  43  44  45  46  47  48 0
 3-21G
 ****


