%nproc=1
%NoSave
%Mem=1900MB
#P OB98/GEN NMR

erre ene a

0 1
  C       -4.076     140.867     110.211
  O       -2.742     140.410     110.115
  H       -4.585     140.373     111.043
  H       -4.066     141.944     110.392
  H       -4.612     140.670     109.277
  P       -2.538     138.846     109.818
  C       -0.607     139.175     108.115
  O       -1.004     138.670     109.382
  C        0.862     138.854     107.858
  O        1.703     139.652     108.716
  C        1.255     137.406     108.130
  O        0.893     136.551     107.055
  C        2.764     137.540     108.251
  O        3.353     137.623     106.939
  C        2.909     138.886     108.977
  N        6.225     137.823     112.727
  C        6.383     137.953     111.392
  N        5.456     138.258     110.461
  C        4.258     138.456     111.034
  C        3.945     138.383     112.380
  C        4.993     138.043     113.252
  N        4.802     137.848     114.610
  N        2.602     138.636     112.585
  C        2.113     138.840     111.380
  N        3.075     138.748     110.411
  O       -3.351     138.636     108.451
  O       -3.016     137.928     110.893
  H        3.265     136.740     106.535
  H       -4.239     138.291     108.657
  H        7.389     137.785     111.021
  H        1.074     139.051     111.161
  H        3.753     139.473     108.598
  H        3.233     136.694     108.762
  H        0.848     137.050     109.085
  H        1.090     139.131     106.820
  H       -0.749     140.261     108.096
  H        5.454     137.184     115.020
  H        3.831     137.763     114.890
  H       -1.235     138.721     107.345
  P        0.092     135.207     107.408
  C       -1.508     135.731     105.442
  O       -0.670     134.765     106.065
  O       -1.085     135.734     108.357
  O        0.891     134.145     108.079
  H       -1.061     135.256     109.210
  H       -1.950     135.307     104.565
  H       -0.925     136.586     105.170
  H       -2.279     136.026     106.123

 6  7  8  9  10  11  12  13  14  15  25  28  32  33  34  35 0
 6-311+G(2d,p)
 ****
 36  39  40 0
 6-311+G(2d,p)
 ****
 1  2  3  4  5  16  17  18  19  20  21  22  23  24 0
 3-21G
 ****
 26  27  29  30  31  37  38  41  42  43  44  45  46  47  48 0
 3-21G
 ****


