%nproc=1
%NoSave
%Mem=1900MB
#P OB98/GEN NMR

erre ene a

0 1
  C     -858.753    -347.644      75.242
  O     -858.678    -346.429      75.958
  H     -859.641    -347.629      74.607
  H     -858.832    -348.490      75.931
  H     -857.869    -347.763      74.608
  P     -857.503    -346.286      77.032
  C     -859.176    -346.543      79.009
  O     -857.997    -347.022      78.369
  C     -860.038    -347.728      79.433
  O     -860.485    -348.456      78.265
  C     -859.314    -348.746      80.301
  O     -859.205    -348.337      81.650
  C     -860.216    -349.959      80.136
  O     -861.326    -349.929      81.042
  C     -860.695    -349.830      78.678
  N     -860.007    -350.771      77.791
  C     -860.617    -352.019      77.668
  O     -861.652    -352.329      78.245
  N     -859.954    -352.917      76.874
  C     -858.755    -352.721      76.256
  O     -858.191    -353.596      75.611
  C     -858.157    -351.386      76.438
  C     -858.803    -350.488      77.196
  O     -857.540    -344.733      77.415
  O     -856.153    -346.710      76.546
  H     -856.785    -344.273      77.004
  H     -861.856    -350.727      80.849
  H     -860.384    -353.834      76.773
  H     -857.200    -351.194      75.956
  H     -858.369    -349.504      77.358
  H     -861.771    -350.012      78.613
  H     -859.667    -350.875      80.326
  H     -858.327    -348.973      79.865
  H     -860.928    -347.342      79.962
  H     -859.748    -345.923      78.309
  H     -858.892    -345.932      79.867
  P     -857.732    -348.073      82.236
  C     -857.946    -350.123      83.866
  O     -857.226    -349.469      82.829
  O     -858.074    -347.181      83.517
  O     -856.821    -347.424      81.239
  H     -858.968    -347.376      83.861
  H     -857.451    -351.036      84.123
  H     -858.939    -350.338      83.530
  H     -857.991    -349.487      84.725

 6  7  8  9  10  11  12  13  14  15  16  27  31  32  33  34  35 0
 6-311+G(2d,p)
 ****
 36  37 0
 6-311+G(2d,p)
 ****
 1  2  3  4  5  17  18  19  20  21  22  23  24  25 0
 3-21G
 ****
 26  28  29  30  38  39  40  41  42  43  44  45 0
 3-21G
 ****


