%nproc=1
%NoSave
%Mem=1900MB
#P OB98/GEN NMR

erre ene a

0 1
  C       97.865     230.825    -147.358
  O       98.684     231.967    -147.509
  H       97.036     230.873    -148.068
  H       98.460     229.934    -147.575
  H       97.481     230.753    -146.338
  P       98.112     233.359    -146.954
  C       97.188     234.164    -149.242
  O       96.886     233.760    -147.915
  C       96.155     235.174    -149.740
  O       94.887     234.485    -149.931
  C       95.911     236.352    -148.782
  O       95.730     237.539    -149.561
  C       94.592     235.992    -148.120
  O       93.885     237.134    -147.645
  C       93.880     235.256    -149.250
  N       89.038     235.231    -147.701
  C       89.750     236.127    -148.417
  N       91.029     236.030    -148.835
  C       91.550     234.836    -148.501
  C       90.944     233.822    -147.779
  C       89.626     234.063    -147.354
  N       88.914     233.187    -146.566
  N       91.824     232.773    -147.590
  C       92.947     233.160    -148.164
  N       92.829     234.402    -148.725
  O       99.266     234.393    -147.366
  O       97.821     233.400    -145.493
  H       93.564     237.648    -148.412
  H       99.939     234.428    -146.663
  H       89.233     237.045    -148.680
  H       93.873     232.603    -148.173
  H       93.419     235.940    -149.975
  H       94.779     235.325    -147.270
  H       96.715     236.505    -148.055
  H       96.472     235.538    -150.725
  H       97.167     233.285    -149.897
  H       88.016     233.492    -146.222
  H       89.376     232.363    -146.210
  H       98.191     234.600    -149.269
  P       97.049     238.252    -150.134
  C       97.166     239.773    -148.024
  O       97.854     238.895    -148.909
  O       96.468     239.528    -150.907
  O       97.859     237.382    -151.040
  H       97.023     239.739    -151.677
  H       97.839     240.114    -147.265
  H       96.350     239.253    -147.568
  H       96.792     240.612    -148.573

 6  7  8  9  10  11  12  13  14  15  25  28  32  33  34  35 0
 6-311+G(2d,p)
 ****
 36  39  40 0
 6-311+G(2d,p)
 ****
 1  2  3  4  5  16  17  18  19  20  21  22  23  24 0
 3-21G
 ****
 26  27  29  30  31  37  38  41  42  43  44  45  46  47 0
 3-21G
 ****
 48 0
 3-21G
 ****


