%nproc=1
%NoSave
%Mem=1900MB
#P OB98/GEN NMR

erre ene a

0 1
  C      -48.849     533.137     -82.316
  O      -48.444     534.214     -81.487
  P      -48.882     535.696     -81.924
  C      -51.126     535.958     -80.632
  O      -50.486     535.725     -81.881
  C      -51.867     537.292     -80.660
  O      -53.059     537.196     -81.467
  C      -52.343     537.767     -79.295
  O      -51.311     538.396     -78.552
  C      -53.402     538.781     -79.692
  O      -52.780     540.026     -80.060
  C      -54.038     538.117     -80.922
  N      -58.833     537.292     -82.297
  C      -57.823     537.945     -82.974
  N      -58.154     538.508     -84.157
  N      -56.597     538.035     -82.533
  C      -56.413     537.433     -81.331
  C      -57.337     536.754     -80.570
  C      -58.694     536.672     -81.064
  O      -59.644     536.155     -80.488
  N      -56.777     536.274     -79.416
  C      -55.518     536.653     -79.479
  N      -55.258     537.399     -80.599
  O      -48.557     535.732     -83.490
  O      -48.196     536.793     -81.182
  H      -52.205     540.283     -79.311
  H      -48.526     536.656     -83.805
  H      -59.767     537.254     -82.679
  H      -54.767     536.432     -78.730
  H      -54.271     538.845     -81.704
  H      -54.105     539.003     -78.885
  H      -59.095     538.528     -84.523
  H      -52.812     536.952     -78.729
  H      -57.446     539.046     -84.641
  H      -51.205     538.038     -81.120
  H      -50.374     535.971     -79.841
  H      -51.826     535.139     -80.430
  P      -51.388     538.263     -76.951
  C      -49.664     536.324     -76.846
  O      -50.998     536.743     -76.634
  O      -52.960     538.325     -76.661
  O      -50.629     539.310     -76.208
  H      -53.125     538.665     -75.761
  H      -49.512     535.365     -76.336
  H      -48.954     537.049     -76.438
  H      -49.482     536.187     -77.914
  H      -48.489     532.216     -81.906
  H      -48.446     533.272     -83.298
  H      -49.917     533.110     -82.370

 3  4  5  6  7  8  9  10  11  12  23  26  30  31 0
 6-311+G(2d,p)
 ****
 33  35  36  37  38 0
 6-311+G(2d,p)
 ****
 1  2  13  14  15  16  17  18  19  20  21  22  24  25 0
 3-21G
 ****
 27  28  29  32  34  39  40  41  42  43  44  45  46  47  48  49 0
 3-21G
 ****


