%nproc=1
%NoSave
%Mem=1900MB
#P OB98/GEN NMR

erre ene a

0 1
  C      394.203    -264.549     -46.563
  O      393.204    -264.939     -47.479
  P      392.156    -266.107     -47.203
  C      392.248    -268.689     -46.796
  O      392.965    -267.471     -46.970
  C      393.201    -269.894     -46.805
  O      393.802    -269.996     -48.120
  C      394.349    -269.713     -45.798
  O      394.678    -270.887     -45.068
  C      395.451    -269.092     -46.653
  O      396.751    -269.231     -46.095
  C      395.223    -269.776     -47.996
  N      399.233    -268.070     -50.612
  C      399.192    -269.013     -49.605
  N      400.381    -269.414     -49.112
  N      398.073    -269.486     -49.107
  C      396.966    -268.907     -49.615
  C      396.882    -267.965     -50.616
  C      398.120    -267.477     -51.183
  O      398.210    -266.558     -51.999
  N      395.588    -267.559     -50.829
  C      394.893    -268.229     -49.935
  N      395.686    -269.037     -49.153
  O      390.951    -266.149     -48.085
  O      391.657    -265.752     -45.708
  H      396.957    -270.180     -46.053
  H      390.713    -266.012     -45.650
  H      400.122    -267.684     -50.902
  H      393.820    -268.148     -49.791
  H      395.719    -270.746     -48.040
  H      395.249    -268.017     -46.719
  H      401.250    -268.959     -49.376
  H      394.067    -268.998     -45.018
  H      400.376    -269.905     -48.224
  H      392.627    -270.811     -46.622
  H      391.548    -268.755     -47.635
  H      391.664    -268.662     -45.872
  P      395.711    -271.064     -43.865
  C      398.186    -271.713     -43.709
  O      397.199    -271.040     -44.460
  O      395.543    -272.583     -43.394
  O      395.492    -270.139     -42.713
  H      395.600    -272.629     -42.419
  H      399.175    -271.396     -44.057
  H      398.089    -272.792     -43.854
  H      398.096    -271.474     -42.644
  H      394.776    -263.747     -46.980
  H      394.846    -265.380     -46.362
  H      393.745    -264.224     -45.652

 3  4  5  6  7  8  9  10  11  12  23  26  30  31 0
 6-311+G(2d,p)
 ****
 33  35  36  37  38 0
 6-311+G(2d,p)
 ****
 1  2  13  14  15  16  17  18  19  20  21  22  24  25 0
 3-21G
 ****
 27  28  29  32  34  39  40  41  42  43  44  45  46  47  48  49 0
 3-21G
 ****


