%nproc=1
%NoSave
%Mem=1900MB
#P OB98/GEN NMR

erre ene a

0 1
  C     -570.763    -101.330     172.234
  O     -571.341    -100.175     171.663
  P     -572.760     -99.679     172.232
  C     -574.204    -101.498     171.040
  O     -573.734    -100.955     172.269
  C     -575.685    -101.874     171.186
  O     -575.832    -103.050     172.005
  C     -576.520    -100.794     171.866
  O     -576.847     -99.741     170.972
  C     -577.733    -101.594     172.332
  O     -578.698    -101.744     171.266
  C     -577.092    -102.952     172.695
  N     -576.948    -103.142     174.134
  C     -578.029    -103.729     174.786
  O     -579.070    -104.057     174.199
  N     -577.901    -103.895     176.134
  C     -576.844    -103.497     176.904
  O     -576.806    -103.619     178.112
  C     -575.739    -102.846     176.164
  C     -575.844    -102.694     174.833
  O     -573.352     -98.780     171.055
  O     -572.670     -98.930     173.522
  H     -579.003    -100.843     171.052
  H     -573.861     -98.027     171.439
  H     -578.668    -104.344     176.618
  H     -574.886    -102.519     176.733
  H     -575.045    -102.222     174.284
  H     -577.708    -103.781     172.298
  H     -578.255    -101.110     173.169
  H     -575.991    -100.410     172.748
  H     -576.087    -102.092     170.186
  H     -573.624    -102.383     170.786
  H     -574.075    -100.750     170.247
  P     -577.385     -98.369     171.616
  C     -579.802     -98.859     170.732
  O     -578.951     -98.602     171.843
  O     -577.275     -97.388     170.354
  O     -576.596     -97.948     172.814
  H     -577.440     -97.858     169.514
  H     -579.291     -99.456     169.968
  H     -580.118     -97.903     170.302
  H     -580.677     -99.403     171.080
  H     -569.828    -101.534     171.756
  H     -571.422    -102.162     172.099
  H     -570.601    -101.168     173.279

 3  4  5  6  7  8  9  10  11  12  13  23  28  29  30  31  32 0
 6-311+G(2d,p)
 ****
 33  34 0
 6-311+G(2d,p)
 ****
 1  2  14  15  16  17  18  19  20  21  22  24  25  26 0
 3-21G
 ****
 27  35  36  37  38  39  40  41  42  43  44  45 0
 3-21G
 ****


