%nproc=1
%NoSave
%Mem=1900MB
#P OB98/GEN NMR

erre ene a

0 1
  C     -943.015    -645.545      41.139
  O     -943.690    -646.775      41.307
  H     -941.939    -645.736      41.144
  H     -943.262    -644.878      41.969
  H     -943.279    -645.066      40.187
  P     -945.228    -646.874      40.884
  C     -947.428    -645.674      41.526
  O     -946.083    -645.966      41.902
  C     -948.406    -645.941      42.678
  O     -947.855    -645.434      43.913
  C     -949.754    -645.255      42.465
  O     -950.684    -646.010      41.708
  C     -950.245    -645.075      43.900
  O     -950.970    -646.226      44.357
  C     -948.935    -644.909      44.691
  N     -948.083    -641.524      48.433
  C     -948.482    -642.840      48.539
  N     -948.714    -643.306      49.786
  N     -948.645    -643.622      47.495
  C     -948.473    -643.001      46.312
  C     -948.098    -641.689      46.081
  C     -947.840    -640.845      47.237
  O     -947.471    -639.678      47.202
  N     -948.067    -641.398      44.738
  C     -948.495    -642.506      44.160
  N     -948.680    -643.528      45.076
  O     -945.646    -648.366      41.330
  O     -945.515    -646.651      39.429
  H     -950.384    -647.007      44.260
  H     -946.326    -648.700      40.727
  H     -947.944    -640.973      49.261
  H     -948.650    -642.641      43.099
  H     -948.967    -645.491      45.626
  H     -950.922    -644.227      43.976
  H     -948.687    -642.717      50.612
  H     -949.632    -644.268      42.019
  H     -949.196    -644.196      49.894
  H     -948.526    -647.032      42.802
  H     -947.659    -646.315      40.673
  H     -947.507    -644.638      41.188
  P     -951.965    -645.309      41.055
  C     -954.328    -644.520      41.906
  O     -953.100    -645.161      42.174
  O     -952.555    -646.440      40.080
  O     -951.699    -644.028      40.321
  H     -952.263    -646.287      39.169
  H     -954.936    -644.532      42.786
  H     -954.834    -645.035      41.116
  H     -954.145    -643.507      41.613

 6  7  8  9  10  11  12  13  14  15  26  29  33  34 0
 6-311+G(2d,p)
 ****
 36  38  39  40  41 0
 6-311+G(2d,p)
 ****
 1  2  3  4  5  16  17  18  19  20  21  22  23  24  25 0
 3-21G
 ****
 27  28  30  31  32  35  37  42  43  44  45  46  47 0
 3-21G
 ****
 48  49 0
 3-21G
 ****


