%nproc=1
%NoSave
%Mem=1900MB
#P OB98/GEN NMR

erre ene a

0 1
  C      227.919    -137.685       9.249
  O      228.723    -137.890       8.100
  P      230.204    -138.471       8.157
  C      232.483    -137.768       9.201
  O      231.093    -137.492       9.085
  C      233.318    -136.506       9.486
  O      233.039    -136.027      10.816
  C      234.813    -136.852       9.457
  O      235.510    -136.904       8.226
  C      235.446    -135.950      10.517
  O      236.042    -134.778       9.959
  C      234.261    -135.575      11.412
  N      235.398    -134.633      16.265
  C      235.158    -133.744      15.236
  N      235.439    -132.448      15.505
  N      234.697    -134.094      14.069
  C      234.562    -135.435      13.923
  C      234.755    -136.418      14.869
  C      235.211    -136.006      16.176
  O      235.524    -136.775      17.082
  N      234.578    -137.670      14.343
  C      234.323    -137.456      13.072
  N      234.344    -136.115      12.758
  O      230.788    -138.961       6.881
  O      230.008    -139.748       9.125
  H      236.928    -135.021       9.625
  H      230.628    -140.447       8.824
  H      235.824    -134.310      17.125
  H      234.151    -138.230      12.333
  H      234.180    -134.488      11.508
  H      236.247    -136.481      11.047
  H      235.926    -132.161      16.347
  H      234.907    -137.866       9.861
  H      235.438    -131.788      14.731
  H      233.040    -135.692       8.808
  H      232.805    -138.244       8.272
  H      232.645    -138.491      10.007
  P      236.851    -137.721       7.928
  C      239.290    -137.765       8.719
  O      238.018    -137.144       8.859
  O      237.290    -137.242       6.462
  O      236.693    -139.211       7.961
  H      237.865    -137.914       6.054
  H      239.902    -137.524       9.583
  H      239.777    -137.401       7.815
  H      239.181    -138.862       8.659
  H      226.970    -137.289       8.954
  H      228.405    -136.995       9.906
  H      227.775    -138.617       9.754

 3  4  5  6  7  8  9  10  11  12  23  26  30  31 0
 6-311+G(2d,p)
 ****
 33  35  36  37  38 0
 6-311+G(2d,p)
 ****
 1  2  13  14  15  16  17  18  19  20  21  22  24  25 0
 3-21G
 ****
 27  28  29  32  34  39  40  41  42  43  44  45  46  47  48  49 0
 3-21G
 ****


