%nproc=1
%NoSave
%Mem=1900MB
#P OB98/GEN NMR

erre ene a

0 1
  C      411.225    -304.412     335.787
  O      411.293    -304.981     334.480
  P      411.834    -306.484     334.327
  C      409.547    -307.674     334.195
  O      410.741    -307.485     334.949
  C      408.983    -309.091     334.427
  O      408.672    -309.253     335.832
  C      407.684    -309.404     333.675
  O      407.776    -309.938     332.354
  C      407.083    -310.495     334.548
  O      407.666    -311.772     334.200
  C      407.516    -310.108     335.959
  N      402.987    -310.678     338.292
  C      403.788    -311.548     337.638
  N      404.981    -311.320     337.052
  C      405.337    -310.032     337.179
  C      404.626    -309.028     337.821
  C      403.394    -309.385     338.394
  N      402.575    -308.493     339.044
  N      405.308    -307.826     337.748
  C      406.400    -308.104     337.063
  N      406.469    -309.424     336.708
  O      413.242    -306.720     334.764
  O      411.676    -306.750     332.753
  H      407.369    -311.972     333.289
  H      412.430    -307.290     332.445
  H      403.422    -312.575     337.587
  H      407.161    -307.379     336.794
  H      407.817    -310.976     336.557
  H      406.003    -310.600     334.411
  H      407.022    -308.525     333.672
  H      409.754    -309.828     334.159
  H      409.754    -307.528     333.136
  H      401.688    -308.824     339.389
  H      402.834    -307.516     339.079
  H      408.839    -306.894     334.497
  P      407.316    -309.091     331.073
  C      409.535    -307.868     330.425
  O      408.268    -307.802     331.038
  O      405.857    -308.785     331.008
  O      407.861    -309.974     329.857
  H      408.834    -310.000     329.779
  H      409.928    -306.853     330.318
  H      409.469    -308.327     329.439
  H      410.223    -308.445     331.051
  H      410.847    -303.413     335.722
  H      412.203    -304.396     336.220
  H      410.574    -305.001     336.399

 3  4  5  6  7  8  9  10  11  12  22  25  29  30  31  32 0
 6-311+G(2d,p)
 ****
 33  36  37 0
 6-311+G(2d,p)
 ****
 1  2  13  14  15  16  17  18  19  20  21  23  24  26 0
 3-21G
 ****
 27  28  34  35  38  39  40  41  42  43  44  45  46  47  48 0
 3-21G
 ****


