%nproc=1
%NoSave
%Mem=1900MB
#P OB98/GEN NMR

erre ene a

0 1
  C     -513.130     877.629     -48.110
  O     -513.659     877.144     -46.862
  P     -515.138     876.530     -46.867
  C     -516.415     878.781     -46.615
  O     -516.160     877.636     -47.416
  C     -517.223     879.816     -47.395
  O     -518.101     879.203     -48.362
  C     -518.134     880.681     -46.520
  O     -517.411     881.746     -45.920
  C     -519.104     881.218     -47.552
  O     -518.510     882.325     -48.264
  C     -519.285     880.021     -48.493
  N     -524.411     879.749     -48.668
  C     -523.536     880.727     -49.024
  N     -522.195     880.740     -48.928
  C     -521.751     879.574     -48.416
  C     -522.513     878.486     -48.011
  C     -523.905     878.611     -48.149
  N     -524.780     877.616     -47.782
  N     -521.706     877.479     -47.522
  C     -520.479     877.939     -47.650
  N     -520.454     879.202     -48.184
  O     -515.499     876.432     -45.313
  O     -515.235     875.186     -47.532
  H     -519.078     882.499     -49.035
  H     -516.056     875.645     -45.144
  H     -523.989     881.630     -49.447
  H     -519.583     877.397     -47.388
  H     -519.370     880.320     -49.551
  H     -520.030     881.600     -47.106
  H     -518.660     880.068     -45.781
  H     -516.518     880.457     -47.943
  H     -515.476     879.219     -46.270
  H     -525.772     877.754     -47.932
  H     -524.416     876.743     -47.410
  H     -516.947     878.474     -45.707
  P     -517.038     881.595     -44.372
  C     -519.460     882.304     -43.741
  O     -518.422     881.355     -43.605
  O     -516.621     883.088     -43.953
  O     -515.948     880.610     -44.087
  H     -515.948     883.068     -43.237
  H     -520.405     881.852     -43.433
  H     -519.555     882.635     -44.779
  H     -519.243     883.164     -43.096
  H     -512.141     878.007     -47.955
  H     -513.757     878.412     -48.483
  H     -513.099     876.828     -48.819

 3  4  5  6  7  8  9  10  11  12  22  25  29  30  31  32 0
 6-311+G(2d,p)
 ****
 33  36  37 0
 6-311+G(2d,p)
 ****
 1  2  13  14  15  16  17  18  19  20  21  23  24  26 0
 3-21G
 ****
 27  28  34  35  38  39  40  41  42  43  44  45  46  47  48 0
 3-21G
 ****


