%nproc=1
%NoSave
%Mem=1900MB
#P OB98/GEN NMR

erre ene a

0 1
  C      168.894      10.909     424.714
  O      169.476      11.622     425.783
  P      170.068      13.096     425.575
  C      168.411      14.679     426.754
  O      168.808      14.095     425.518
  C      168.230      16.194     426.591
  O      169.493      16.767     426.133
  C      167.142      16.559     425.563
  O      166.151      17.466     426.048
  C      167.956      17.053     424.377
  O      167.229      17.876     423.485
  C      169.166      17.685     425.072
  N      170.285      17.905     424.159
  C      170.335      19.128     423.500
  O      169.514      20.030     423.644
  N      171.349      19.281     422.596
  C      172.226      18.314     422.207
  O      173.048      18.487     421.317
  C      172.100      17.026     422.909
  C      171.168      16.888     423.854
  O      171.023      13.249     424.441
  O      170.696      13.438     427.009
  H      167.060      18.727     423.932
  H      170.063      13.423     427.747
  H      171.397      20.163     422.110
  H      172.775      16.238     422.614
  H      171.051      15.951     424.389
  H      168.907      18.637     425.534
  H      168.281      16.175     423.807
  H      166.567      15.675     425.266
  H      167.998      16.608     427.577
  H      169.185      14.490     427.499
  H      167.489      14.206     427.109
  P      164.571      17.222     425.984
  C      164.217      15.584     427.972
  O      164.268      15.765     426.572
  O      163.935      17.517     424.666
  O      163.997      18.197     427.117
  H      163.095      18.478     426.878
  H      164.507      14.555     428.201
  H      163.193      15.744     428.318
  H      164.892      16.270     428.490
  H      168.563       9.952     425.061
  H      169.618      10.776     423.938
  H      168.059      11.458     424.332

 3  4  5  6  7  8  9  10  11  12  13  23  28  29  30  31  32 0
 6-311+G(2d,p)
 ****
 33  34 0
 6-311+G(2d,p)
 ****
 1  2  14  15  16  17  18  19  20  21  22  24  25  26  27 0
 3-21G
 ****
 35  36  37  38  39  40  41  42  43  44  45 0
 3-21G
 ****


