%nproc=1
%NoSave
%Mem=1900MB
#P OB98/GEN NMR

erre ene a

0 1
  C     -438.878      70.314    -473.466
  O     -437.482      70.481    -473.626
  H     -439.316      71.272    -473.177
  H     -439.071      69.585    -472.672
  H     -439.342      69.980    -474.399
  P     -436.695      69.294    -474.364
  C     -436.269      66.781    -473.864
  O     -436.947      67.967    -473.486
  C     -436.416      65.713    -472.779
  O     -435.656      66.082    -471.603
  C     -437.851      65.497    -472.305
  O     -438.553      64.607    -473.171
  C     -437.606      64.854    -470.951
  O     -437.233      63.470    -471.124
  C     -436.403      65.659    -470.429
  N     -436.433      67.722    -465.792
  C     -436.049      66.456    -466.195
  N     -435.621      65.615    -465.227
  N     -436.083      66.044    -467.441
  C     -436.559      66.981    -468.294
  C     -436.973      68.268    -468.019
  C     -436.910      68.711    -466.638
  O     -437.223      69.829    -466.232
  N     -437.390      68.923    -469.150
  C     -437.247      68.028    -470.111
  N     -436.749      66.832    -469.645
  O     -435.161      69.654    -474.073
  O     -436.951      69.163    -475.823
  H     -437.934      63.052    -471.659
  H     -434.770      70.051    -474.873
  H     -436.388      67.989    -464.821
  H     -437.480      68.198    -471.152
  H     -435.732      65.052    -469.811
  H     -438.490      64.866    -470.310
  H     -435.591      65.862    -464.244
  H     -438.387      66.446    -472.174
  H     -435.342      64.685    -465.500
  H     -435.988      64.775    -473.162
  H     -435.207      67.002    -474.013
  H     -436.694      66.408    -474.810
  P     -440.153      64.734    -473.243
  C     -442.147      64.019    -471.750
  O     -440.742      64.100    -471.887
  O     -440.537      63.652    -474.360
  O     -440.673      66.088    -473.598
  H     -440.865      64.104    -475.167
  H     -442.388      63.579    -470.805
  H     -442.548      63.415    -472.537
  H     -442.568      65.001    -471.804

 6  7  8  9  10  11  12  13  14  15  26  29  33  34 0
 6-311+G(2d,p)
 ****
 36  38  39  40  41 0
 6-311+G(2d,p)
 ****
 1  2  3  4  5  16  17  18  19  20  21  22  23  24  25 0
 3-21G
 ****
 27  28  30  31  32  35  37  42  43  44  45  46  47 0
 3-21G
 ****
 48  49 0
 3-21G
 ****


