%nproc=1
%NoSave
%Mem=1900MB
#P OB98/GEN NMR

erre ene a

0 1
  C     -197.497     -15.759     258.836
  O     -196.556     -16.761     259.183
  P     -195.963     -17.673     258.002
  C     -197.643     -19.550     258.780
  O     -197.073     -18.794     257.717
  C     -198.961     -20.178     258.330
  O     -199.944     -19.145     258.099
  C     -198.878     -20.962     257.027
  O     -198.281     -22.234     257.211
  C     -200.346     -20.998     256.610
  O     -201.040     -22.035     257.332
  C     -200.839     -19.610     257.062
  N     -200.927     -18.646     255.969
  C     -202.029     -18.766     255.127
  O     -202.899     -19.628     255.275
  N     -202.092     -17.870     254.091
  C     -201.151     -16.932     253.785
  O     -201.237     -16.185     252.817
  C     -199.994     -16.873     254.686
  C     -199.934     -17.718     255.722
  O     -194.795     -18.443     258.783
  O     -195.518     -16.882     256.815
  H     -194.989     -18.522     259.736
  H     -201.975     -21.988     257.047
  H     -202.894     -17.924     253.482
  H     -199.220     -16.144     254.469
  H     -199.085     -17.696     256.391
  H     -201.830     -19.694     257.531
  H     -200.477     -21.201     255.542
  H     -198.302     -20.390     256.283
  H     -199.328     -20.822     259.142
  H     -197.823     -18.887     259.629
  H     -196.927     -20.323     259.087
  P     -197.379     -22.788     255.995
  C     -199.374     -23.980     254.799
  O     -198.369     -22.989     254.756
  O     -197.063     -24.276     256.498
  O     -196.166     -21.956     255.723
  H     -197.843     -24.717     256.893
  H     -200.145     -23.734     254.063
  H     -199.835     -24.036     255.791
  H     -198.940     -24.953     254.545
  H     -197.802     -15.235     259.718
  H     -198.351     -16.214     258.379
  H     -197.049     -15.071     258.150

 3  4  5  6  7  8  9  10  11  12  13  24  28  29  30  31  32 0
 6-311+G(2d,p)
 ****
 33  34 0
 6-311+G(2d,p)
 ****
 1  2  14  15  16  17  18  19  20  21  22  23  25  26  27 0
 3-21G
 ****
 35  36  37  38  39  40  41  42  43  44  45 0
 3-21G
 ****


