%nproc=1
%NoSave
%Mem=1900MB
#P OB98/GEN NMR

erre ene a

0 1
  C     -898.870    -593.100    1766.124
  O     -897.880    -592.230    1766.687
  P     -898.150    -590.656    1766.662
  C     -897.940    -590.213    1769.227
  O     -898.770    -590.228    1768.071
  C     -898.640    -590.868    1770.414
  O     -898.980    -592.238    1770.131
  C     -897.800    -590.893    1771.680
  O     -897.880    -589.664    1772.393
  C     -898.490    -591.994    1772.474
  O     -899.670    -591.455    1773.108
  C     -898.860    -592.992    1771.383
  N     -897.180    -597.377    1773.303
  C     -898.230    -596.548    1773.703
  N     -898.940    -596.974    1774.768
  N     -898.550    -595.436    1773.102
  C     -897.780    -595.160    1772.036
  C     -896.720    -595.878    1771.533
  C     -896.350    -597.102    1772.219
  O     -895.430    -597.851    1771.908
  N     -896.180    -595.255    1770.448
  C     -896.910    -594.183    1770.280
  N     -897.890    -594.064    1771.212
  O     -899.390    -590.527    1765.672
  O     -896.970    -589.839    1766.212
  H     -900.000    -592.150    1773.716
  H     -899.360    -589.650    1765.213
  H     -896.980    -598.213    1773.795
  H     -896.770    -593.459    1769.469
  H     -899.830    -593.468    1771.548
  H     -897.860    -592.393    1773.274
  H     -898.780    -597.855    1775.252
  H     -896.760    -591.177    1771.447
  H     -899.720    -596.417    1775.066
  H     -899.570    -590.321    1770.615
  H     -897.680    -589.163    1769.458
  H     -896.990    -590.704    1768.975
  P     -896.650    -588.625    1772.247
  C     -898.090    -586.511    1771.749
  O     -897.150    -587.471    1771.253
  O     -895.600    -589.429    1771.343
  O     -896.070    -588.185    1773.533
  H     -894.690    -589.197    1771.590
  H     -898.220    -585.731    1771.002
  H     -897.700    -586.062    1772.678
  H     -899.080    -586.983    1771.931
  H     -898.546    -594.116    1766.216
  H     -899.008    -592.862    1765.090
  H     -899.795    -592.972    1766.646

 3  4  5  6  7  8  9  10  11  12  23  26  30  31 0
 6-311+G(2d,p)
 ****
 33  35  36  37  38 0
 6-311+G(2d,p)
 ****
 1  2  13  14  15  16  17  18  19  20  21  22  24  25 0
 3-21G
 ****
 27  28  29  32  34  39  40  41  42  43  44  45  46  47  48  49 0
 3-21G
 ****


