%nproc=1
%NoSave
%Mem=1900MB
#P OB98/GEN NMR

erre ene a

0 1
  C     -745.527     -59.729    -212.084
  O     -745.728     -59.471    -213.463
  P     -746.347     -60.655    -214.359
  C     -748.826     -59.915    -214.623
  O     -747.904     -60.773    -213.961
  C     -750.174     -60.614    -214.818
  O     -750.031     -61.640    -215.840
  C     -750.722     -61.304    -213.556
  O     -752.153     -61.175    -213.605
  C     -750.295     -62.745    -213.775
  O     -750.984     -63.681    -212.960
  C     -750.514     -62.874    -215.269
  N     -751.073     -67.614    -217.113
  C     -751.974     -66.704    -216.683
  N     -751.752     -65.459    -216.211
  C     -750.434     -65.168    -216.225
  C     -749.402     -65.996    -216.627
  C     -749.766     -67.279    -217.094
  N     -748.834     -68.207    -217.524
  N     -748.185     -65.365    -216.481
  C     -748.477     -64.179    -215.997
  N     -749.827     -64.012    -215.846
  O     -745.710     -61.971    -213.713
  O     -746.065     -60.551    -215.825
  H     -751.951     -63.579    -213.067
  H     -745.480     -62.622    -214.399
  H     -753.011     -67.018    -216.709
  H     -747.756     -63.420    -215.722
  H     -751.581     -62.968    -215.521
  H     -749.228     -62.840    -213.529
  H     -750.358     -60.859    -212.625
  H     -750.899     -59.883    -215.188
  H     -748.438     -59.649    -215.611
  H     -749.167     -69.149    -217.647
  H     -747.867     -68.026    -217.314
  H     -748.941     -58.994    -214.046
  P     -752.939     -60.843    -212.249
  C     -753.620     -58.425    -212.796
  O     -752.746     -59.251    -212.058
  O     -751.927     -61.427    -211.144
  O     -754.327     -61.375    -212.154
  H     -751.025     -61.097    -211.285
  H     -753.442     -57.385    -212.508
  H     -754.663     -58.683    -212.578
  H     -753.422     -58.528    -213.863
  H     -745.113     -58.861    -211.615
  H     -744.852     -60.552    -211.970
  H     -746.464     -59.969    -211.626

 3  4  5  6  7  8  9  10  11  12  22  25  29  30  31  32 0
 6-311+G(2d,p)
 ****
 33  36  37 0
 6-311+G(2d,p)
 ****
 1  2  13  14  15  16  17  18  19  20  21  23  24  26 0
 3-21G
 ****
 27  28  34  35  38  39  40  41  42  43  44  45  46  47  48 0
 3-21G
 ****


