%nproc=1
%NoSave
%Mem=1900MB
#P OB98/GEN NMR

erre ene a

0 1
  C     -320.093     307.758      56.730
  O     -319.091     306.821      56.385
  H     -321.065     307.355      56.435
  H     -319.925     308.700      56.201
  H     -320.093     307.928      57.809
  P     -317.582     307.217      56.762
  C     -317.413     305.842      58.949
  O     -317.539     307.131      58.362
  C     -316.603     305.919      60.240
  O     -315.267     306.380      59.972
  C     -317.171     306.876      61.281
  O     -318.231     306.270      62.000
  C     -315.950     307.099      62.158
  O     -315.784     305.985      63.056
  C     -314.799     307.119      61.133
  N     -310.881     310.430      60.957
  C     -311.032     309.251      61.597
  N     -312.116     308.448      61.634
  C     -313.122     308.967      60.914
  C     -313.115     310.161      60.207
  C     -311.924     310.905      60.236
  N     -311.771     312.105      59.573
  N     -314.329     310.370      59.589
  C     -315.038     309.296      59.874
  N     -314.364     308.435      60.703
  O     -317.073     308.475      56.151
  O     -316.801     305.886      56.328
  H     -315.002     306.168      63.610
  H     -317.324     305.096      56.548
  H     -310.165     308.905      62.154
  H     -316.032     309.088      59.494
  H     -313.911     306.606      61.513
  H     -316.039     307.995      62.776
  H     -317.467     307.828      60.830
  H     -316.521     304.903      60.646
  H     -316.933     305.150      58.248
  H     -310.953     312.652      59.785
  H     -312.587     312.514      59.141
  H     -318.423     305.476      59.158
  P     -319.078     307.110      63.071
  C     -320.878     307.736      61.345
  O     -319.886     308.223      62.243
  O     -318.293     307.641      64.218
  O     -320.228     306.109      63.549
  H     -320.397     306.218      64.504
  H     -321.348     308.561      60.852
  H     -321.612     307.181      61.891
  H     -320.419     307.100      60.617

 6  7  8  9  10  11  12  13  14  15  25  28  32  33  34  35 0
 6-311+G(2d,p)
 ****
 36  39  40 0
 6-311+G(2d,p)
 ****
 1  2  3  4  5  16  17  18  19  20  21  22  23  24 0
 3-21G
 ****
 26  27  29  30  31  37  38  41  42  43  44  45  46  47 0
 3-21G
 ****
 48 0
 3-21G
 ****


