%nproc=1
%NoSave
%Mem=1900MB
#P OB98/GEN NMR

erre ene a

0 1
  C      840.674      34.229    -609.048
  O      840.997      35.605    -609.013
  H      839.909      34.031    -608.295
  H      841.561      33.635    -608.808
  H      840.285      33.943    -610.027
  P      841.963      36.201    -610.140
  C      840.425      38.158    -610.834
  O      841.027      36.930    -611.218
  C      839.361      38.581    -611.851
  O      840.015      38.841    -613.128
  C      838.269      37.519    -612.106
  O      837.070      38.225    -612.447
  C      838.852      36.798    -613.312
  O      837.924      35.942    -613.929
  C      839.348      38.017    -614.108
  N      840.243      37.708    -615.222
  C      839.684      37.164    -616.368
  O      838.491      36.930    -616.518
  N      840.564      36.881    -617.386
  C      841.911      37.108    -617.365
  O      842.645      36.868    -618.317
  C      842.443      37.677    -616.119
  C      841.600      37.951    -615.124
  O      842.959      35.248    -610.710
  O      842.683      37.432    -609.408
  H      843.582      37.176    -609.140
  H      838.352      35.519    -614.706
  H      840.174      36.498    -618.227
  H      843.510      37.852    -616.063
  H      841.965      38.379    -614.194
  H      838.493      38.587    -614.488
  H      839.683      36.167    -613.001
  H      838.089      36.878    -611.243
  H      838.917      39.531    -611.521
  H      841.209      38.924    -610.781
  H      839.975      38.043    -609.840
  P      835.792      38.316    -611.477
  C      835.754      40.807    -610.789
  O      836.067      39.481    -610.397
  O      835.406      37.010    -610.864
  O      834.609      38.899    -612.390
  H      833.751      38.607    -612.030
  H      835.981      41.479    -609.988
  H      834.712      40.873    -611.025
  H      836.332      41.070    -611.650

 6  7  8  9  10  11  12  13  14  15  16  27  31  32  33  34  35 0
 6-311+G(2d,p)
 ****
 36  37 0
 6-311+G(2d,p)
 ****
 1  2  3  4  5  17  18  19  20  21  22  23  24  25 0
 3-21G
 ****
 26  28  29  30  38  39  40  41  42  43  44  45 0
 3-21G
 ****


