%nproc=1
%NoSave
%Mem=1900MB
#P OB98/GEN NMR

erre ene a

0 1
  C     -723.486     711.009    -301.872
  O     -723.369     712.384    -302.244
  P     -722.882     712.701    -303.754
  C     -720.363     712.486    -303.106
  O     -721.440     712.019    -303.932
  C     -719.043     712.406    -303.862
  O     -719.060     713.227    -305.058
  C     -717.833     712.894    -303.057
  O     -717.370     711.916    -302.139
  C     -716.829     713.133    -304.162
  O     -716.179     711.894    -304.514
  C     -717.710     713.623    -305.332
  N     -715.034     717.565    -307.046
  C     -714.721     716.223    -307.058
  N     -713.542     715.875    -307.618
  N     -715.495     715.297    -306.559
  C     -716.649     715.799    -306.046
  C     -717.066     717.108    -305.982
  C     -716.191     718.114    -306.516
  O     -716.403     719.329    -306.510
  N     -718.312     717.208    -305.402
  C     -718.643     715.975    -305.140
  N     -717.679     715.061    -305.507
  O     -722.562     714.257    -303.718
  O     -723.896     712.351    -304.798
  H     -715.784     711.539    -303.695
  H     -722.676     714.649    -304.602
  H     -714.389     718.242    -307.452
  H     -719.588     715.657    -304.690
  H     -717.421     713.160    -306.277
  H     -716.030     713.827    -303.879
  H     -712.930     716.523    -308.104
  H     -718.070     713.851    -302.551
  H     -713.323     714.882    -307.675
  H     -718.875     711.364    -304.155
  H     -720.305     711.872    -302.197
  H     -720.586     713.505    -302.783
  P     -717.899     712.030    -300.621
  C     -715.961     713.581    -299.808
  O     -717.350     713.441    -300.092
  O     -716.971     710.967    -299.871
  O     -719.340     711.756    -300.436
  H     -717.455     710.615    -299.069
  H     -715.355     713.115    -300.578
  H     -715.761     713.143    -298.828
  H     -715.735     714.644    -299.763
  H     -723.814     710.941    -300.856
  H     -722.534     710.530    -301.972
  H     -724.197     710.526    -302.509

 3  4  5  6  7  8  9  10  11  12  23  26  30  31  33  0
 6-311+G(2d,p)
 ****
 35  36  37  38 0
 6-311+G(2d,p)
 ****
 1  2  13  14  15  16  17  18  19  20  21  22  24  25  27  28  29 0
 3-21G
 ****
 32  34  39  40  41  42  43  44  45  46  47  48  49 0
 3-21G
 ****


