%nproc=1
%NoSave
%Mem=1900MB
#P OB98/GEN NMR

erre ene a

0 1
  C        5.662      31.375    -145.314
  O        5.650      30.383    -144.302
  P        6.907      30.323    -143.304
  C        9.145      29.007    -143.259
  O        8.046      29.462    -144.036
  C        9.864      27.851    -143.958
  O        9.027      26.663    -143.885
  C       10.180      28.100    -145.441
  O       11.425      27.447    -145.714
  C        9.026      27.395    -146.133
  O        9.252      27.130    -147.507
  C        8.877      26.171    -145.236
  N        5.913      23.568    -148.485
  C        7.173      24.043    -148.600
  N        7.902      24.720    -147.688
  C        7.203      24.885    -146.552
  C        5.906      24.474    -146.294
  C        5.250      23.783    -147.326
  N        3.959      23.306    -147.208
  N        5.515      24.847    -145.026
  C        6.558      25.476    -144.524
  N        7.607      25.505    -145.401
  O        6.399      29.348    -142.143
  O        7.352      31.648    -142.769
  H        8.463      26.709    -147.900
  H        6.709      29.650    -141.268
  H        7.662      23.854    -149.551
  H        6.600      25.935    -143.547
  H        9.670      25.433    -145.412
  H        8.134      28.030    -146.072
  H       10.269      29.161    -145.693
  H       10.787      27.634    -143.406
  H        8.781      28.648    -142.291
  H        3.513      23.007    -148.062
  H        3.411      23.650    -146.430
  H        9.829      29.841    -143.073
  P       12.039      27.535    -147.194
  C       12.519      25.676    -148.900
  O       11.685      26.109    -147.843
  O       13.601      27.369    -146.884
  O       11.684      28.752    -147.976
  H       13.775      26.597    -146.318
  H       12.230      24.659    -149.178
  H       13.565      25.672    -148.582
  H       12.392      26.329    -149.767
  H        4.770      31.298    -145.899
  H        6.515      31.232    -145.944
  H        5.710      32.344    -144.863

 3  4  5  6  7  8  9  10  11  12  22  25  29  30  31  32 0
 6-311+G(2d,p)
 ****
 33  36  37 0
 6-311+G(2d,p)
 ****
 1  2  13  14  15  16  17  18  19  20  21  23  24  26 0
 3-21G
 ****
 27  28  34  35  38  39  40  41  42  43  44  45  46  47  48 0
 3-21G
 ****


