%nproc=1
%NoSave
%Mem=1900MB
#P OB98/GEN NMR

erre ene a

0 1
  C       43.168    -114.273     -26.674
  O       44.403    -114.293     -25.959
  P       44.370    -114.056     -24.373
  C       45.243    -116.423     -23.824
  O       45.457    -115.021     -23.690
  C       46.535    -117.198     -23.517
  O       47.391    -117.170     -24.691
  C       47.381    -116.621     -22.375
  O       47.116    -117.067     -21.047
  C       48.769    -117.142     -22.740
  O       48.923    -118.493     -22.262
  C       48.769    -117.136     -24.265
  N       53.210    -115.329     -26.051
  C       52.857    -116.540     -25.565
  N       51.653    -116.938     -25.107
  C       50.754    -115.946     -25.201
  C       50.967    -114.662     -25.679
  C       52.268    -114.361     -26.117
  N       52.629    -113.126     -26.603
  N       49.807    -113.918     -25.612
  C       48.916    -114.734     -25.086
  N       49.434    -115.974     -24.833
  O       43.021    -114.060     -23.740
  O       45.061    -112.615     -24.227
  H       48.157    -118.994     -22.598
  H       44.613    -112.121     -23.514
  H       53.648    -117.284     -25.534
  H       47.889    -114.471     -24.871
  H       49.260    -118.020     -24.687
  H       49.569    -116.554     -22.279
  H       47.377    -115.526     -22.403
  H       46.285    -118.245     -23.304
  H       44.913    -116.647     -24.840
  H       53.594    -112.978     -26.855
  H       51.953    -112.375     -26.605
  H       44.423    -116.694     -23.158
  P       47.540    -116.192     -19.774
  C       45.208    -115.412     -18.884
  O       46.306    -116.288     -18.756
  O       47.987    -114.804     -20.079
  O       48.649    -117.109     -19.079
  H       48.309    -117.932     -18.692
  H       44.394    -115.774     -18.248
  H       44.856    -115.377     -19.918
  H       45.492    -114.410     -18.554
  H       43.355    -114.445     -27.713
  H       42.699    -113.319     -26.549
  H       42.524    -115.039     -26.296

 3  4  5  6  7  8  9  10  11  12  22  25  29  30  31  32 0
 6-311+G(2d,p)
 ****
 33  36  37 0
 6-311+G(2d,p)
 ****
 1  2  13  14  15  16  17  18  19  20  21  23  24  26 0
 3-21G
 ****
 27  28  34  35  38  39  40  41  42  43  44  45  46  47  48 0
 3-21G
 ****


