%nproc=1
%NoSave
%Mem=1900MB
#P OB98/GEN NMR

erre ene a

0 1
  C     -340.216     171.693    -422.808
  O     -341.015     171.708    -423.972
  H     -340.726     171.151    -422.008
  H     -339.273     171.185    -423.032
  H     -339.998     172.715    -422.486
  P     -342.467     172.378    -423.845
  C     -342.046     173.603    -426.090
  O     -342.927     172.788    -425.331
  C     -342.776     174.167    -427.307
  O     -342.999     173.086    -428.247
  C     -344.137     174.814    -426.994
  O     -344.149     176.175    -427.433
  C     -345.131     174.030    -427.831
  O     -346.131     174.851    -428.432
  C     -344.256     173.352    -428.880
  N     -348.199     171.449    -431.481
  C     -347.644     172.678    -431.480
  N     -346.529     173.094    -430.846
  C     -345.957     172.076    -430.175
  C     -346.396     170.766    -430.103
  C     -347.587     170.465    -430.782
  N     -348.188     169.226    -430.739
  N     -345.552     170.011    -429.308
  C     -344.645     170.861    -428.875
  N     -344.862     172.126    -429.357
  O     -342.162     173.786    -423.145
  O     -343.466     171.583    -423.073
  H     -346.687     175.191    -427.707
  H     -342.779     173.924    -422.402
  H     -348.165     173.435    -432.059
  H     -343.846     170.632    -428.183
  H     -344.069     174.002    -429.745
  H     -345.630     173.291    -427.193
  H     -344.393     174.764    -425.929
  H     -342.116     174.892    -427.800
  H     -341.196     173.004    -426.433
  H     -349.097     169.132    -431.158
  H     -347.793     168.520    -430.132
  H     -341.668     174.411    -425.455
  P     -343.498     177.261    -426.438
  C     -343.200     179.072    -428.283
  O     -343.804     178.712    -427.048
  O     -341.927     177.080    -426.690
  O     -343.862     177.065    -425.006
  H     -341.429     177.347    -425.895
  H     -343.501     180.063    -428.552
  H     -343.509     178.386    -429.044
  H     -342.135     179.038    -428.183

 6  7  8  9  10  11  12  13  14  15  25  28  32  33  34  35 0
 6-311+G(2d,p)
 ****
 36  39  40 0
 6-311+G(2d,p)
 ****
 1  2  3  4  5  16  17  18  19  20  21  22  23  24 0
 3-21G
 ****
 26  27  29  30  31  37  38  41  42  43  44  45  46  47  48 0
 3-21G
 ****


