%nproc=1
%NoSave
%Mem=1900MB
#P OB98/GEN NMR

erre ene a

0 1
  C     -944.970    1392.825    -488.617
  O     -944.891    1393.682    -489.745
  P     -943.624    1394.657    -489.930
  C     -941.912    1392.831    -490.641
  O     -942.311    1393.774    -489.667
  C     -940.431    1392.995    -490.975
  O     -940.260    1394.242    -491.709
  C     -939.496    1393.110    -489.767
  O     -938.161    1392.812    -490.193
  C     -939.625    1394.574    -489.410
  O     -938.536    1395.028    -488.615
  C     -939.749    1395.245    -490.812
  N     -940.667    1396.388    -490.756
  C     -940.302    1397.456    -489.945
  O     -939.222    1397.495    -489.341
  N     -941.237    1398.445    -489.773
  C     -942.504    1398.429    -490.294
  O     -943.417    1399.124    -489.903
  C     -942.739    1397.408    -491.327
  C     -941.841    1396.439    -491.494
  O     -943.719    1395.589    -488.628
  O     -943.626    1395.447    -491.185
  H     -938.653    1394.611    -487.716
  H     -944.173    1396.425    -488.848
  H     -941.033    1399.138    -489.067
  H     -943.678    1397.454    -491.873
  H     -942.016    1395.645    -492.207
  H     -938.781    1395.593    -491.172
  H     -940.544    1394.713    -488.833
  H     -939.773    1392.447    -488.933
  H     -940.108    1392.167    -491.626
  H     -942.529    1392.961    -491.540
  H     -942.083    1391.812    -490.281
  P     -937.266    1391.858    -489.265
  C     -937.420    1389.516    -490.293
  O     -937.945    1390.409    -489.330
  O     -936.959    1392.373    -487.885
  O     -935.936    1391.662    -490.132
  H     -935.202    1391.357    -489.561
  H     -937.557    1388.486    -489.920
  H     -936.358    1389.689    -490.472
  H     -937.975    1389.632    -491.239
  H     -945.875    1392.256    -488.664
  H     -944.963    1393.412    -487.722
  H     -944.131    1392.161    -488.614

 3  4  5  6  7  8  9  10  11  12  13  23  28  29  30  31  32 0
 6-311+G(2d,p)
 ****
 33  34 0
 6-311+G(2d,p)
 ****
 1  2  14  15  16  17  18  19  20  21  22  24  25  26  27 0
 3-21G
 ****
 35  36  37  38  39  40  41  42  43  44  45 0
 3-21G
 ****


