%nproc=1
%NoSave
%Mem=1900MB
#P OB98/GEN NMR

erre ene a

0 1
  C      670.344    -899.060     404.008
  O      670.385    -898.770     402.618
  H      671.362    -899.210     404.354
  H      669.768    -899.970     404.180
  H      669.892    -898.220     404.565
  P      669.026    -898.340     401.877
  C      668.308    -896.410     400.304
  O      669.281    -896.880     401.239
  C      668.796    -895.110     399.662
  O      668.913    -894.070     400.654
  C      670.194    -895.230     399.053
  O      670.149    -895.910     397.799
  C      670.590    -893.760     398.939
  O      670.001    -893.150     397.791
  C      669.987    -893.190     400.253
  N      670.973    -893.030     401.327
  C      671.930    -892.040     401.152
  O      671.959    -891.310     400.163
  N      672.836    -891.910     402.168
  C      672.956    -892.730     403.244
  O      673.853    -892.620     404.092
  C      671.941    -893.790     403.364
  C      671.028    -893.890     402.421
  O      667.776    -898.470     402.683
  O      668.995    -899.290     400.587
  H      670.266    -892.210     397.813
  H      668.341    -900.000     400.731
  H      673.542    -891.190     402.066
  H      672.008    -894.470     404.212
  H      670.262    -894.670     402.485
  H      669.535    -892.210     400.066
  H      671.661    -893.630     398.874
  H      670.884    -895.730     399.740
  H      668.073    -894.790     398.914
  H      667.375    -896.210     400.856
  H      668.137    -897.190     399.546
  P      671.319    -896.920     397.413
  C      671.598    -899.060     396.014
  O      670.731    -897.990     396.376
  O      672.094    -897.500     398.564
  O      672.300    -896.020     396.488
  H      673.180    -895.970     396.886
  H      671.099    -899.705     395.322
  H      671.865    -899.615     396.889
  H      672.482    -898.664     395.559

 6  7  8  9  10  11  12  13  14  15  16  26  31  32  33  34  35 0
 6-311+G(2d,p)
 ****
 36  37 0
 6-311+G(2d,p)
 ****
 1  2  3  4  5  17  18  19  20  21  22  23  24  25 0
 3-21G
 ****
 27  28  29  30  38  39  40  41  42  43  44  45 0
 3-21G
 ****


