%nproc=1
%NoSave
%Mem=1900MB
#P OB98/GEN NMR

erre ene a

0 1
  C      -11.054     -11.398       8.887
  O      -12.372     -11.882       9.082
  P      -13.237     -11.245      10.277
  C      -14.017      -8.796      10.705
  O      -13.001      -9.659      10.220
  C      -13.401      -7.549      11.343
  O      -12.904      -7.901      12.660
  C      -12.230      -6.940      10.564
  O      -12.271      -5.525      10.787
  C      -11.016      -7.529      11.256
  O       -9.835      -6.763      11.041
  C      -11.501      -7.560      12.701
  N       -7.591      -8.284      15.825
  C       -7.963      -7.153      15.120
  N       -7.218      -6.047      15.327
  N       -8.973      -7.112      14.291
  C       -9.633      -8.291      14.200
  C       -9.339      -9.485      14.814
  C       -8.244      -9.507      15.756
  O       -7.933     -10.460      16.466
  N      -10.183     -10.483      14.404
  C      -11.036      -9.873      13.606
  N      -10.772      -8.535      13.488
  O      -12.432     -11.701      11.580
  O      -14.677     -11.647      10.320
  H       -9.727      -6.646      10.075
  H      -12.799     -12.528      11.949
  H       -6.815      -8.249      16.463
  H      -11.861     -10.342      13.096
  H      -11.400      -6.588      13.200
  H      -10.832      -8.543      10.880
  H       -6.447      -5.998      15.973
  H      -12.256      -7.159       9.493
  H       -7.489      -5.196      14.848
  H      -14.196      -6.806      11.483
  H      -14.597      -9.327      11.467
  H      -14.689      -8.523       9.887
  P      -11.711      -4.568       9.630
  C      -12.481      -4.014       7.221
  O      -12.462      -4.957       8.273
  O      -10.224      -5.123       9.399
  O      -11.686      -3.115       9.975
  H       -9.639      -4.389       9.136
  H      -12.654      -4.541       6.279
  H      -11.536      -3.468       7.151
  H      -13.297      -3.305       7.383
  H      -10.604     -11.911       8.063
  H      -10.477     -11.569       9.771
  H      -11.086     -10.349       8.680

 3  4  5  6  7  8  9  10  11  12  23  26  30  31 0
 6-311+G(2d,p)
 ****
 33  35  36  37  38 0
 6-311+G(2d,p)
 ****
 1  2  13  14  15  16  17  18  19  20  21  22  24  25 0
 3-21G
 ****
 27  28  29  32  34  39  40  41  42  43  44  45  46  47  48  49 0
 3-21G
 ****


