%nproc=1
%NoSave
%Mem=1900MB
#P OB98/GEN NMR

erre ene a

0 1
  C     -415.714    -574.919     388.889
  O     -414.873    -576.056     388.916
  P     -413.282    -575.861     388.954
  C     -413.170    -577.089     386.656
  O     -412.656    -576.971     387.963
  C     -412.948    -578.506     386.093
  O     -411.514    -578.701     385.945
  C     -413.427    -579.632     387.004
  O     -413.551    -580.826     386.222
  C     -412.271    -579.779     387.972
  O     -412.263    -581.037     388.622
  C     -411.041    -579.490     387.064
  N     -409.992    -578.766     387.790
  C     -409.293    -579.476     388.771
  O     -409.478    -580.673     388.982
  N     -408.441    -578.734     389.547
  C     -408.268    -577.385     389.477
  O     -407.756    -576.712     390.364
  C     -408.836    -576.734     388.279
  C     -409.684    -577.432     387.519
  O     -412.901    -576.404     390.410
  O     -412.804    -574.477     388.728
  H     -411.397    -581.094     389.114
  H     -412.818    -575.662     391.034
  H     -408.044    -579.229     390.348
  H     -408.603    -575.692     388.108
  H     -410.159    -576.965     386.662
  H     -410.604    -580.416     386.674
  H     -412.344    -579.008     388.744
  H     -414.367    -579.421     387.519
  H     -413.406    -578.579     385.107
  H     -412.700    -576.336     386.009
  H     -414.246    -576.866     386.647
  P     -414.820    -581.777     386.475
  C     -413.333    -583.863     386.358
  O     -414.459    -583.195     385.827
  O     -416.148    -581.206     386.105
  O     -414.723    -582.073     388.051
  H     -415.582    -582.393     388.383
  H     -413.481    -584.945     386.253
  H     -413.188    -583.634     387.426
  H     -412.434    -583.574     385.800
  H     -416.737    -575.232     388.866
  H     -415.499    -574.337     388.017
  H     -415.542    -574.327     389.764

 3  4  5  6  7  8  9  10  11  12  13  23  28  29  30  31  32 0
 6-311+G(2d,p)
 ****
 33  34 0
 6-311+G(2d,p)
 ****
 1  2  14  15  16  17  18  19  20  21  22  24  25  26  27 0
 3-21G
 ****
 35  36  37  38  39  40  41  42  43  44  45 0
 3-21G
 ****


