%nproc=1
%NoSave
%Mem=1900MB
#P OB98/GEN NMR

erre ene a

0 1
  C      375.295     600.837     382.954
  O      373.952     600.540     382.616
  P      373.710     599.622     381.314
  C      371.585     600.932     380.527
  O      372.141     599.709     380.989
  C      370.075     600.905     380.676
  O      369.499     599.909     379.797
  C      369.578     600.539     382.088
  O      369.611     601.681     382.922
  C      368.182     600.016     381.801
  O      367.246     601.112     381.642
  C      368.378     599.271     380.474
  N      366.233     594.696     380.747
  C      365.659     595.948     380.764
  N      364.314     595.984     380.816
  N      366.329     597.063     380.726
  C      367.676     596.878     380.691
  C      368.376     595.683     380.700
  C      367.604     594.453     380.682
  O      368.066     593.319     380.575
  N      369.732     595.902     380.676
  C      369.851     597.206     380.639
  N      368.637     597.849     380.618
  O      373.916     598.141     381.879
  O      374.604     599.927     380.156
  H      366.454     600.792     381.158
  H      374.817     597.813     381.672
  H      365.658     593.862     380.765
  H      370.791     597.736     380.593
  H      367.501     599.368     379.806
  H      367.793     599.392     382.614
  H      363.714     595.174     380.876
  H      370.193     599.733     382.505
  H      363.867     596.898     380.818
  H      369.676     601.876     380.377
  H      371.845     601.066     379.476
  H      372.006     601.765     381.110
  P      370.993     602.011     383.672
  C      370.287     602.098     386.184
  O      370.616     602.816     385.010
  O      371.685     603.111     382.728
  O      371.888     600.829     383.870
  H      372.638     602.979     382.717
  H      370.581     602.695     387.041
  H      370.823     601.132     386.217
  H      369.217     601.921     386.214
  H      375.315     601.449     383.831
  H      375.759     601.360     382.144
  H      375.825     599.927     383.142

 3  4  5  6  7  8  9  10  11  12  23  26  30  31 0
 6-311+G(2d,p)
 ****
 33  35  36  37  38 0
 6-311+G(2d,p)
 ****
 1  2  13  14  15  16  17  18  19  20  21  22  24  25 0
 3-21G
 ****
 27  28  29  32  34  39  40  41  42  43  44  45  46  47  48  49 0
 3-21G
 ****


