%nproc=1
%NoSave
%Mem=1900MB
#P OB98/GEN NMR

erre ene a

0 1
  C     -362.577     -41.083     127.148
  O     -362.536     -41.263     128.552
  H     -363.169     -40.183     126.927
  H     -363.043     -41.944     126.664
  H     -361.566     -40.942     126.761
  P     -361.802     -42.598     129.077
  C     -363.712     -44.248     128.382
  O     -363.019     -43.579     129.443
  C     -364.217     -45.594     128.870
  O     -363.110     -46.446     129.264
  C     -365.125     -45.532     130.105
  O     -366.457     -45.117     129.786
  C     -365.067     -46.993     130.538
  O     -365.877     -47.797     129.649
  C     -363.570     -47.289     130.366
  N     -362.796     -47.036     131.581
  C     -362.796     -48.027     132.560
  O     -363.433     -49.071     132.395
  N     -362.106     -47.819     133.725
  C     -361.436     -46.707     133.894
  N     -360.771     -46.564     135.074
  C     -361.379     -45.633     132.882
  C     -362.073     -45.873     131.759
  O     -361.249     -42.170     130.527
  O     -360.772     -43.174     128.170
  H     -366.788     -47.464     129.722
  H     -360.904     -42.960     130.999
  H     -360.817     -44.740     133.067
  H     -362.074     -45.124     130.962
  H     -363.407     -48.340     130.061
  H     -365.457     -47.148     131.543
  H     -364.703     -44.899     130.878
  H     -364.721     -46.090     128.011
  H     -360.865     -47.288     135.771
  H     -363.000     -44.385     127.553
  H     -360.348     -45.685     135.361
  H     -364.558     -43.644     128.041
  P     -366.977     -43.758     130.455
  C     -366.208     -44.228     132.905
  O     -367.297     -44.093     131.994
  O     -368.425     -43.567     129.809
  O     -366.100     -42.573     130.229
  H     -368.628     -42.615     129.682
  H     -366.585     -44.449     133.882
  H     -365.653     -43.314     132.936
  H     -365.569     -45.022     132.581

 6  7  8  9  10  11  12  13  14  15  16  26  30  31  32  33  35 0
 6-311+G(2d,p)
 ****
 37  38 0
 6-311+G(2d,p)
 ****
 1  2  3  4  5  17  18  19  20  21  22  23  24  25 0
 3-21G
 ****
 27  28  29  34  36  39  40  41  42  43  44  45  46 0
 3-21G
 ****


