%nproc=1
%NoSave
%Mem=1900MB
#P OB98/GEN NMR

erre ene a

0 1
  C      -76.574     129.028     700.281
  O      -76.490     129.052     698.876
  H      -75.652     129.444     700.701
  H      -76.674     127.994     700.631
  H      -77.420     129.624     700.635
  P      -77.805     128.763     698.005
  C      -79.006     126.549     697.425
  O      -78.284     127.286     698.410
  C      -79.893     125.502     698.099
  O      -79.038     124.597     698.860
  C      -80.920     126.108     699.078
  O      -82.114     125.312     699.041
  C      -80.217     125.923     700.410
  O      -81.108     125.984     701.495
  C      -79.554     124.565     700.205
  N      -78.514     124.324     701.201
  C      -78.838     123.489     702.268
  O      -79.947     122.972     702.411
  N      -77.870     123.325     703.224
  C      -76.677     123.984     703.266
  O      -75.873     123.858     704.180
  C      -76.404     124.891     702.135
  C      -77.314     125.014     701.165
  O      -77.685     129.000     696.533
  O      -78.931     129.679     698.682
  H      -80.638     125.797     702.329
  H      -79.662     129.836     698.055
  H      -78.088     122.718     703.995
  H      -75.470     125.444     702.142
  H      -77.159     125.684     700.330
  H      -80.294     123.754     700.253
  H      -79.468     126.711     700.546
  H      -81.163     127.150     698.861
  H      -80.394     124.904     697.331
  H      -78.279     126.056     696.766
  H      -79.618     127.240     696.831
  P      -83.548     125.954     698.719
  C      -85.764     126.459     699.919
  O      -84.375     126.218     700.083
  O      -84.335     125.212     697.678
  O      -83.212     127.428     698.196
  H      -83.741     127.614     697.391
  H      -86.213     126.620     700.877
  H      -86.220     125.613     699.449
  H      -85.906     127.326     699.308

 6  7  8  9  10  11  12  13  14  15  16  26  31  32  33  34  35 0
 6-311+G(2d,p)
 ****
 36  37 0
 6-311+G(2d,p)
 ****
 1  2  3  4  5  17  18  19  20  21  22  23  24  25 0
 3-21G
 ****
 27  28  29  30  38  39  40  41  42  43  44  45 0
 3-21G
 ****


