%nproc=1
%NoSave
%Mem=1900MB
#P OB98/GEN NMR

erre ene a

0 1
  C      104.015    -181.779     436.103
  O      103.568    -180.441     436.192
  H      104.145    -182.198     437.103
  H      103.263    -182.367     435.570
  H      104.958    -181.829     435.551
  P      104.535    -179.418     436.963
  C      103.087    -179.209     439.096
  O      103.604    -178.553     437.947
  C      102.679    -178.177     440.148
  O      103.870    -177.455     440.559
  C      101.645    -177.152     439.653
  O      100.552    -177.054     440.577
  C      102.399    -175.837     439.650
  O      101.577    -174.724     439.987
  C      103.493    -176.077     440.681
  N      105.596    -171.617     441.989
  C      104.678    -172.387     442.609
  N      104.229    -173.608     442.258
  C      104.859    -174.047     441.154
  C      105.836    -173.386     440.425
  C      106.190    -172.102     440.872
  N      107.088    -171.295     440.208
  N      106.242    -174.149     439.346
  C      105.495    -175.233     439.396
  N      104.634    -175.207     440.464
  O      104.950    -178.374     435.820
  O      105.733    -180.049     437.588
  H      101.253    -174.868     440.896
  H      105.918    -178.406     435.700
  H      104.234    -171.961     443.505
  H      105.500    -176.037     438.670
  H      103.131    -175.917     441.704
  H      102.820    -175.668     438.650
  H      101.257    -177.394     438.658
  H      102.303    -178.707     441.032
  H      103.856    -179.865     439.521
  H      107.194    -170.348     440.530
  H      107.446    -171.607     439.315
  H      102.228    -179.819     438.806
  P       99.375    -178.137     440.404
  C       97.541    -176.534     439.502
  O       97.968    -177.375     440.566
  O       99.497    -179.017     441.738
  O       99.509    -178.981     439.181
  H       99.615    -179.959     441.503
  H       96.596    -176.098     439.749
  H       97.444    -177.113     438.607
  H       98.262    -175.759     439.349

 6  7  8  9  10  11  12  13  14  15  25  28  32  33  34  35 0
 6-311+G(2d,p)
 ****
 36  39  40 0
 6-311+G(2d,p)
 ****
 1  2  3  4  5  16  17  18  19  20  21  22  23  24 0
 3-21G
 ****
 26  27  29  30  31  37  38  41  42  43  44  45  46  47  48 0
 3-21G
 ****


