%nproc=1
%NoSave
%Mem=1900MB
#P OB98/GEN NMR

erre ene a

0 1
  C      -15.473      72.348    -121.820
  O      -16.867      72.469    -122.004
  H      -15.069      73.325    -121.542
  H      -14.999      72.028    -122.752
  H      -15.249      71.633    -121.023
  P      -17.698      71.121    -122.265
  C      -18.283      69.694    -124.353
  O      -17.511      70.760    -123.819
  C      -18.760      70.040    -125.766
  O      -19.864      70.978    -125.671
  C      -17.677      70.675    -126.643
  O      -17.821      70.180    -127.977
  C      -18.012      72.155    -126.613
  O      -17.523      72.852    -127.758
  C      -19.540      72.124    -126.482
  N      -20.053      73.361    -125.901
  C      -19.913      74.521    -126.668
  O      -19.371      74.472    -127.775
  N      -20.335      75.718    -126.146
  C      -20.776      75.767    -124.929
  N      -21.150      76.988    -124.455
  C      -20.879      74.579    -124.056
  C      -20.510      73.421    -124.604
  O      -19.221      71.601    -122.180
  O      -17.402      69.996    -121.329
  H      -17.687      73.811    -127.629
  H      -19.796      70.894    -121.832
  H      -21.228      74.674    -123.038
  H      -20.542      72.498    -124.039
  H      -20.008      71.977    -127.466
  H      -17.564      72.614    -125.724
  H      -16.662      70.474    -126.287
  H      -19.156      69.129    -126.231
  H      -21.049      77.781    -125.077
  H      -19.157      69.533    -123.715
  H      -21.466      77.149    -123.511
  H      -17.682      68.779    -124.367
  P      -17.016      68.840    -128.339
  C      -14.546      68.321    -128.945
  O      -15.448      69.153    -128.228
  O      -17.262      68.676    -129.912
  O      -17.478      67.639    -127.580
  H      -17.869      67.930    -130.079
  H      -13.543      68.651    -128.774
  H      -14.765      68.375    -129.991
  H      -14.651      67.310    -128.610

 6  7  8  9  10  11  12  13  14  15  16  26  30  31  32  33  35 0
 6-311+G(2d,p)
 ****
 37  38 0
 6-311+G(2d,p)
 ****
 1  2  3  4  5  17  18  19  20  21  22  23  24  25 0
 3-21G
 ****
 27  28  29  34  36  39  40  41  42  43  44  45  46 0
 3-21G
 ****


