%nproc=1
%NoSave
%Mem=1900MB
#P OB98/GEN NMR

erre ene a

0 1
  C      200.528     412.229     -21.594
  O      200.240     410.936     -21.105
  H      200.163     412.965     -20.873
  H      200.020     412.392     -22.547
  H      201.605     412.369     -21.718
  P      200.850     409.667     -21.870
  C      198.716     408.412     -22.593
  O      199.806     408.465     -21.681
  C      197.764     407.288     -22.199
  O      198.433     406.012     -22.297
  C      197.252     407.380     -20.767
  O      196.254     408.377     -20.648
  C      196.764     405.955     -20.547
  O      195.470     405.763     -21.138
  C      197.842     405.142     -21.303
  N      198.865     404.584     -20.421
  C      198.526     403.420     -19.737
  O      197.418     402.894     -19.818
  N      199.503     402.894     -18.933
  C      200.726     403.450     -18.692
  O      201.548     402.964     -17.920
  C      201.017     404.696     -19.416
  C      200.089     405.197     -20.235
  O      202.265     409.325     -21.540
  O      200.683     410.046     -23.417
  H      195.126     404.917     -20.787
  H      201.533     410.365     -23.772
  H      199.272     402.060     -18.418
  H      201.976     405.168     -19.244
  H      200.284     406.119     -20.773
  H      197.375     404.313     -21.852
  H      196.671     405.699     -19.493
  H      198.083     407.575     -20.079
  H      196.927     407.284     -22.912
  H      199.107     408.224     -23.600
  H      198.201     409.378     -22.588
  P      196.579     409.777     -19.948
  C      194.239     410.475     -19.171
  O      195.279     410.711     -20.111
  O      197.860     410.418     -20.368
  O      196.585     409.440     -18.385
  H      197.504     409.432     -18.052
  H      193.426     411.143     -19.364
  H      194.609     410.640     -18.181
  H      193.900     409.464     -19.261

 6  7  8  9  10  11  12  13  14  15  16  26  31  32  33  34  35 0
 6-311+G(2d,p)
 ****
 36  37 0
 6-311+G(2d,p)
 ****
 1  2  3  4  5  17  18  19  20  21  22  23  24  25 0
 3-21G
 ****
 27  28  29  30  38  39  40  41  42  43  44  45 0
 3-21G
 ****


