%nproc=1
%NoSave
%Mem=1900MB
#P OB98/GEN NMR

erre ene a

0 1
  C     -108.798     -18.322     -66.817
  O     -108.492     -19.508     -67.521
  H     -108.146     -18.258     -65.942
  H     -109.837     -18.331     -66.478
  H     -108.618     -17.449     -67.450
  P     -109.396     -19.896     -68.790
  C     -110.672     -21.791     -67.568
  O     -110.742     -20.497     -68.147
  C     -111.978     -22.119     -66.848
  O     -112.199     -21.223     -65.740
  C     -113.232     -21.990     -67.707
  O     -113.389     -23.044     -68.641
  C     -114.297     -22.010     -66.622
  O     -114.477     -23.357     -66.150
  C     -113.637     -21.126     -65.536
  N     -114.069     -19.731     -65.596
  C     -114.769     -19.244     -64.484
  O     -114.996     -19.972     -63.518
  N     -115.229     -17.949     -64.508
  C     -115.027     -17.212     -65.555
  N     -115.545     -15.952     -65.545
  C     -114.280     -17.679     -66.739
  C     -113.840     -18.935     -66.696
  O     -108.746     -20.751     -69.829
  O     -109.910     -18.490     -69.356
  H     -115.171     -23.329     -65.467
  H     -110.467     -18.675     -70.152
  H     -114.147     -17.026     -67.589
  H     -113.298     -19.355     -67.535
  H     -113.847     -21.519     -64.535
  H     -115.272     -21.653     -66.967
  H     -113.264     -21.017     -68.209
  H     -111.880     -23.129     -66.429
  H     -116.086     -15.682     -64.735
  H     -109.827     -21.809     -66.873
  H     -115.673     -15.428     -66.405
  H     -110.509     -22.543     -68.346
  P     -113.996     -22.686     -70.085
  C     -116.404     -23.205     -69.237
  O     -115.528     -22.272     -69.850
  O     -114.094     -24.115     -70.794
  O     -113.214     -21.696     -70.889
  H     -113.299     -24.295     -71.333
  H     -117.381     -22.776     -69.155
  H     -116.039     -23.450     -68.262
  H     -116.453     -24.093     -69.833

 6  7  8  9  10  11  12  13  14  15  16  26  30  31  32  33  35 0
 6-311+G(2d,p)
 ****
 37  38 0
 6-311+G(2d,p)
 ****
 1  2  3  4  5  17  18  19  20  21  22  23  24  25 0
 3-21G
 ****
 27  28  29  34  36  39  40  41  42  43  44  45  46 0
 3-21G
 ****


