%nproc=1
%NoSave
%Mem=1900MB
#P OB98/GEN NMR

erre ene a

0 1
  C      305.027     223.831     -43.410
  O      303.778     224.293     -43.891
  P      302.545     223.268     -43.855
  C      301.488     224.651     -45.794
  O      301.807     223.368     -45.274
  C      301.315     224.581     -47.306
  O      302.590     224.353     -47.939
  C      300.413     223.459     -47.792
  O      299.037     223.765     -47.581
  C      300.822     223.381     -49.260
  O      300.188     224.431     -50.008
  C      302.339     223.629     -49.179
  N      304.484     220.021     -52.106
  C      303.739     221.107     -52.418
  N      303.186     222.012     -51.581
  C      303.474     221.699     -50.299
  C      304.194     220.615     -49.835
  C      304.721     219.750     -50.803
  N      305.477     218.633     -50.493
  N      304.261     220.625     -48.462
  C      303.603     221.701     -48.092
  N      303.112     222.394     -49.174
  O      301.510     223.971     -42.852
  O      302.893     221.871     -43.405
  H      299.224     224.315     -49.904
  H      301.015     223.309     -42.331
  H      303.567     221.285     -53.484
  H      303.439     222.026     -47.074
  H      302.712     224.244     -50.004
  H      300.552     222.428     -49.733
  H      300.664     222.512     -47.283
  H      300.937     225.558     -47.652
  H      302.296     225.350     -45.559
  H      305.677     217.994     -51.225
  H      305.533     218.370     -49.512
  H      300.573     225.006     -45.310
  P      297.973     222.590     -47.786
  C      296.280     224.508     -47.911
  O      296.736     223.315     -48.512
  O      297.431     222.362     -46.301
  O      298.508     221.373     -48.485
  H      297.188     223.204     -45.870
  H      295.464     224.932     -48.515
  H      297.088     225.246     -47.826
  H      295.873     224.296     -46.907
  H      305.753     224.613     -43.493
  H      305.343     222.989     -43.989
  H      304.930     223.542     -42.384

 3  4  5  6  7  8  9  10  11  12  22  25  29  30  31  32 0
 6-311+G(2d,p)
 ****
 33  36  37 0
 6-311+G(2d,p)
 ****
 1  2  13  14  15  16  17  18  19  20  21  23  24  26 0
 3-21G
 ****
 27  28  34  35  38  39  40  41  42  43  44  45  46  47  48 0
 3-21G
 ****


