%nproc=1
%NoSave
%Mem=1900MB
#P OB98/GEN NMR

erre ene a

0 1
  C       86.082     111.638     -61.414
  O       86.403     112.786     -60.648
  P       85.208     113.793     -60.276
  C       86.480     115.786     -61.361
  O       85.294     115.004     -61.324
  C       86.257     117.041     -62.199
  O       86.188     116.714     -63.602
  C       84.957     117.773     -61.893
  O       85.060     118.600     -60.746
  C       84.798     118.619     -63.146
  O       85.635     119.789     -63.059
  C       85.312     117.675     -64.240
  N       82.575     117.455     -68.488
  C       83.720     118.175     -68.212
  N       84.163     118.997     -69.187
  N       84.374     118.095     -67.084
  C       83.809     117.238     -66.197
  C       82.679     116.469     -66.357
  C       81.959     116.577     -67.606
  O       80.912     116.006     -67.890
  N       82.424     115.718     -65.241
  C       83.396     116.028     -64.406
  N       84.237     116.978     -64.923
  O       85.699     114.459     -58.906
  O       83.870     113.148     -60.141
  H       85.476     120.306     -63.874
  H       84.945     114.877     -58.449
  H       82.104     117.556     -69.372
  H       83.520     115.606     -63.417
  H       85.902     118.205     -64.993
  H       83.773     118.973     -63.293
  H       83.669     119.150     -70.055
  H       84.115     117.074     -61.818
  H       84.964     119.584     -68.989
  H       87.118     117.706     -62.049
  H       87.288     115.194     -61.795
  H       86.763     116.058     -60.339
  P       83.721     119.352     -60.277
  C       84.641     121.727     -60.788
  O       83.694     120.725     -61.101
  O       84.068     119.807     -58.783
  O       82.486     118.517     -60.344
  H       83.252     119.895     -58.256
  H       84.656     122.461     -61.599
  H       85.643     121.303     -60.683
  H       84.355     122.232     -59.862
  H       86.969     111.064     -61.585
  H       85.667     111.940     -62.353
  H       85.368     111.043     -60.883

 3  4  5  6  7  8  9  10  11  12  23  26  30  31 0
 6-311+G(2d,p)
 ****
 33  35  36  37  38 0
 6-311+G(2d,p)
 ****
 1  2  13  14  15  16  17  18  19  20  21  22  24  25 0
 3-21G
 ****
 27  28  29  32  34  39  40  41  42  43  44  45  46  47  48  49 0
 3-21G
 ****


