%nproc=1
%NoSave
%Mem=1900MB
#P OB98/GEN NMR

erre ene a

0 1
  C       -4.518    -476.043      15.678
  O       -5.452    -477.078      15.436
  H       -4.872    -475.134      15.182
  H       -3.539    -476.304      15.261
  H       -4.431    -475.844      16.748
  P       -5.158    -478.528      16.055
  C       -3.263    -480.252      15.651
  O       -3.936    -479.092      15.175
  C       -2.984    -481.213      14.497
  O       -2.240    -480.568      13.442
  C       -2.148    -482.433      14.868
  O       -2.853    -483.400      15.623
  C       -1.787    -482.930      13.475
  O       -2.926    -483.588      12.890
  C       -1.477    -481.601      12.756
  N       -0.050    -481.271      12.771
  C        0.815    -482.217      12.206
  O        0.379    -483.266      11.736
  N        2.172    -481.970      12.214
  C        2.622    -480.882      12.765
  N        3.970    -480.689      12.756
  C        1.747    -479.867      13.389
  C        0.438    -480.124      13.354
  O       -6.341    -479.441      16.178
  O       -4.437    -478.230      17.453
  H       -3.647    -482.934      12.860
  H       -4.240    -479.099      17.884
  H        2.176    -478.992      13.856
  H       -0.264    -479.428      13.796
  H       -1.826    -481.625      11.716
  H       -0.966    -483.643      13.477
  H       -1.223    -482.130      15.379
  H       -3.960    -481.502      14.073
  H        4.544    -481.402      12.321
  H       -3.890    -480.721      16.414
  H        4.415    -479.909      13.223
  H       -2.307    -479.964      16.102
  P       -1.997    -484.260      16.682
  C        0.280    -485.534      16.528
  O       -0.818    -484.961      15.842
  O       -2.979    -485.468      17.047
  O       -1.531    -483.503      17.888
  H       -3.442    -485.290      17.891
  H        0.964    -485.953      15.820
  H       -0.071    -486.304      17.183
  H        0.777    -484.778      17.100

 6  7  8  9  10  11  12  13  14  15  16  26  30  31  32  33  35 0
 6-311+G(2d,p)
 ****
 37  38 0
 6-311+G(2d,p)
 ****
 1  2  3  4  5  17  18  19  20  21  22  23  24  25 0
 3-21G
 ****
 27  28  29  34  36  39  40  41  42  43  44  45  46 0
 3-21G
 ****


