%nproc=1
%NoSave
%Mem=1900MB
#P OB98/GEN NMR

erre ene a

0 1
  C      143.116    -260.584     140.027
  O      144.417    -260.011     140.102
  P      144.741    -259.024     141.324
  C      146.370    -260.549     142.644
  O      145.085    -259.944     142.593
  C      146.966    -260.456     144.049
  O      148.213    -261.202     144.084
  C      147.278    -259.029     144.518
  O      147.072    -258.990     145.934
  C      148.762    -258.891     144.229
  O      149.367    -257.853     144.995
  C      149.237    -260.303     144.563
  N      153.941    -262.149     145.340
  C      152.889    -261.991     146.173
  N      151.667    -261.493     145.891
  C      151.587    -261.133     144.599
  C      152.589    -261.202     143.642
  C      153.818    -261.743     144.054
  N      154.888    -261.913     143.208
  N      152.136    -260.713     142.433
  C      150.888    -260.357     142.655
  N      150.507    -260.615     143.942
  O      143.300    -258.421     141.676
  O      145.723    -257.943     141.026
  H      150.322    -257.840     144.789
  H      143.268    -257.473     141.445
  H      153.048    -262.316     147.198
  H      150.226    -259.911     141.928
  H      149.344    -260.459     145.645
  H      148.914    -258.660     143.167
  H      146.681    -258.256     144.024
  H      146.279    -260.947     144.750
  H      147.032    -260.023     141.950
  H      155.685    -262.430     143.542
  H      154.745    -261.793     142.211
  H      146.295    -261.593     142.333
  P      147.043    -257.544     146.626
  C      144.480    -257.278     146.926
  O      145.645    -256.872     146.233
  O      148.119    -256.710     145.781
  O      147.373    -257.559     148.081
  H      148.505    -256.006     146.336
  H      143.802    -256.426     147.007
  H      144.711    -257.648     147.933
  H      143.985    -258.075     146.360
  H      143.053    -261.214     139.165
  H      142.387    -259.805     139.953
  H      142.930    -261.164     140.907

 3  4  5  6  7  8  9  10  11  12  22  25  29  30  31  32 0
 6-311+G(2d,p)
 ****
 33  36  37 0
 6-311+G(2d,p)
 ****
 1  2  13  14  15  16  17  18  19  20  21  23  24  26 0
 3-21G
 ****
 27  28  34  35  38  39  40  41  42  43  44  45  46  47  48 0
 3-21G
 ****


