%nproc=1
%NoSave
%Mem=1900MB
#P OB98/GEN NMR

erre ene a

0 1
  C       34.748    -150.245     546.634
  O       34.623    -148.869     546.342
  H       33.896    -150.774     546.197
  H       34.739    -150.399     547.716
  H       35.669    -150.645     546.207
  P       35.824    -147.914     546.819
  C       35.938    -146.214     544.863
  O       35.521    -146.463     546.199
  C       34.884    -145.408     544.106
  O       33.702    -146.246     543.909
  C       34.425    -144.131     544.828
  O       34.152    -143.134     543.837
  C       33.101    -144.553     545.452
  O       32.258    -143.442     545.753
  C       32.570    -145.478     544.359
  N       27.783    -146.807     543.546
  C       28.606    -145.944     542.847
  N       28.077    -145.341     541.764
  N       29.846    -145.693     543.183
  C       30.257    -146.394     544.267
  C       29.541    -147.273     545.048
  C       28.163    -147.515     544.681
  O       27.379    -148.255     545.271
  N       30.309    -147.751     546.078
  C       31.484    -147.169     545.924
  N       31.501    -146.336     544.836
  O       37.058    -148.447     545.949
  O       36.116    -147.936     548.280
  H       32.737    -142.864     546.380
  H       37.563    -149.113     546.452
  H       26.833    -146.954     543.253
  H       32.345    -147.312     546.562
  H       32.168    -144.922     543.500
  H       33.282    -145.108     546.381
  H       27.146    -145.517     541.417
  H       35.139    -143.743     545.560
  H       28.678    -144.738     541.214
  H       35.272    -145.174     543.107
  H       36.092    -147.173     544.355
  H       36.887    -145.664     544.879
  P       34.250    -141.596     544.269
  C       35.920    -140.778     542.455
  O       34.595    -140.733     542.966
  O       35.613    -141.546     545.104
  O       33.090    -141.111     545.079
  H       35.574    -140.829     545.766
  H       35.990    -140.153     541.589
  H       36.166    -141.785     542.189
  H       36.602    -140.430     543.202

 6  7  8  9  10  11  12  13  14  15  26  29  33  34 0
 6-311+G(2d,p)
 ****
 36  38  39  40  41 0
 6-311+G(2d,p)
 ****
 1  2  3  4  5  16  17  18  19  20  21  22  23  24  25 0
 3-21G
 ****
 27  28  30  31  32  35  37  42  43  44  45  46  47 0
 3-21G
 ****
 48  49 0
 3-21G
 ****


