%nproc=1
%NoSave
%Mem=1900MB
#P OB98/GEN NMR

erre ene a

0 1
  C      134.882     441.955    -262.446
  O      134.822     441.823    -261.039
  H      134.019     441.449    -262.882
  H      135.795     441.489    -262.830
  H      134.854     443.011    -262.727
  P      136.001     442.524    -260.204
  C      134.180     444.153    -259.345
  O      135.463     444.011    -259.938
  C      134.300     444.735    -257.939
  O      135.120     443.893    -257.108
  C      134.945     446.117    -257.888
  O      134.004     447.126    -258.210
  C      135.364     446.182    -256.428
  O      134.225     446.519    -255.610
  C      135.805     444.734    -256.138
  N      140.138     443.965    -253.501
  C      138.905     444.340    -253.104
  N      137.811     444.568    -253.868
  C      138.084     444.367    -255.167
  C      139.300     443.982    -255.718
  C      140.359     443.765    -254.821
  N      141.618     443.372    -255.228
  N      139.203     443.876    -257.089
  C      137.938     444.146    -257.358
  N      137.231     444.480    -256.231
  O      137.364     442.405    -260.788
  O      135.810     441.833    -258.769
  H      134.543     446.633    -254.697
  H      134.864     441.722    -258.566
  H      138.771     444.476    -252.037
  H      137.487     444.091    -258.339
  H      135.492     444.407    -255.143
  H      136.122     446.946    -256.247
  H      135.836     446.167    -258.518
  H      133.297     444.754    -257.495
  H      133.673     443.181    -259.301
  H      142.357     443.408    -254.544
  H      141.809     443.346    -256.218
  H      133.593     444.816    -259.981
  P      134.234     448.088    -259.473
  C      132.616     447.106    -261.212
  O      133.968     447.195    -260.782
  O      135.529     448.822    -259.480
  O      132.983     449.084    -259.455
  H      133.263     449.980    -259.717
  H      132.559     446.491    -262.085
  H      132.249     448.085    -261.441
  H      132.022     446.676    -260.433

 6  7  8  9  10  11  12  13  14  15  25  28  32  33  34  35 0
 6-311+G(2d,p)
 ****
 36  39  40 0
 6-311+G(2d,p)
 ****
 1  2  3  4  5  16  17  18  19  20  21  22  23  24 0
 3-21G
 ****
 26  27  29  30  31  37  38  41  42  43  44  45  46  47 0
 3-21G
 ****
 48 0
 3-21G
 ****


