%nproc=1
%NoSave
%Mem=1900MB
#P OB98/GEN NMR

erre ene a

0 1
  C      -72.162    -262.719    -883.377
  O      -72.890    -263.847    -883.827
  P      -72.138    -265.265    -883.823
  C      -72.782    -265.718    -881.345
  O      -72.858    -266.145    -882.699
  C      -74.001    -266.212    -880.558
  O      -75.191    -265.530    -881.006
  C      -74.280    -267.694    -880.725
  O      -73.392    -268.459    -879.929
  C      -75.737    -267.773    -880.272
  O      -75.826    -267.929    -878.845
  C      -76.303    -266.407    -880.719
  N      -77.213    -266.511    -881.849
  C      -78.574    -266.403    -881.556
  O      -78.944    -266.232    -880.385
  N      -79.482    -266.506    -882.579
  C      -79.068    -266.727    -883.783
  N      -80.006    -266.830    -884.763
  C      -77.635    -266.877    -884.139
  C      -76.771    -266.772    -883.130
  O      -70.717    -264.921    -883.164
  O      -71.997    -265.901    -885.161
  H      -75.385    -267.139    -878.462
  H      -70.029    -265.543    -883.459
  H      -77.342    -267.064    -885.164
  H      -75.705    -266.871    -883.299
  H      -76.852    -265.933    -879.890
  H      -76.255    -268.620    -880.716
  H      -74.206    -267.988    -881.774
  H      -73.846    -265.964    -879.495
  H      -80.977    -266.728    -884.490
  H      -72.767    -264.621    -881.302
  H      -79.789    -266.973    -885.742
  H      -71.859    -266.097    -880.899
  P      -73.013    -269.925    -880.456
  C      -71.322    -268.852    -882.056
  O      -71.516    -269.792    -881.016
  O      -73.866    -270.041    -881.803
  O      -73.268    -271.068    -879.518
  H      -73.796    -270.941    -882.168
  H      -70.245    -268.736    -882.234
  H      -71.727    -267.876    -881.780
  H      -71.794    -269.214    -882.973
  H      -72.782    -261.849    -883.434
  H      -71.298    -262.583    -883.994
  H      -71.856    -262.873    -882.364

 3  4  5  6  7  8  9  10  11  12  13  21  23  27  28  29  30  32 0
 6-311+G(2d,p)
 ****
 34  35 0
 6-311+G(2d,p)
 ****
 1  2  14  15  16  17  18  19  20  22  24  25  26 0
 3-21G
 ****
 31  33  36  37  38  39  40  41  42  43  44  45  46 0
 3-21G
 ****


