%nproc=1
%NoSave
%Mem=1900MB
#P OB98/GEN NMR

erre ene a

0 1
  C     1187.207    -654.857      37.056
  O     1186.253    -655.010      38.137
  P     1186.859    -655.350      39.587
  C     1186.120    -653.036      40.582
  O     1187.196    -653.952      40.282
  C     1185.770    -653.119      42.065
  O     1186.893    -652.780      42.848
  C     1184.646    -652.188      42.468
  O     1183.370    -652.712      42.073
  C     1184.856    -652.140      43.988
  O     1184.145    -653.204      44.642
  C     1186.396    -652.292      44.127
  N     1187.047    -651.064      44.518
  C     1186.483    -650.410      45.650
  O     1185.533    -650.910      46.204
  N     1187.063    -649.236      46.070
  C     1188.057    -648.706      45.419
  N     1188.567    -647.546      45.895
  C     1188.647    -649.349      44.212
  C     1188.099    -650.502      43.821
  O     1188.291    -655.953      39.259
  O     1186.005    -656.279      40.394
  H     1184.367    -653.138      45.597
  H     1188.569    -656.596      39.958
  H     1189.490    -648.885      43.720
  H     1188.474    -651.040      42.948
  H     1186.616    -653.052      44.867
  H     1184.460    -651.194      44.409
  H     1184.805    -651.200      42.027
  H     1185.505    -654.182      42.281
  H     1188.130    -647.146      46.695
  H     1185.267    -653.329      39.958
  H     1189.362    -647.099      45.460
  H     1186.411    -652.028      40.303
  P     1182.214    -651.663      41.818
  C     1183.178    -651.305      39.461
  O     1182.782    -650.687      40.658
  O     1182.287    -650.719      43.104
  O     1180.821    -652.214      41.577
  H     1181.521    -650.099      43.095
  H     1183.416    -650.524      38.703
  H     1182.413    -651.943      39.064
  H     1184.114    -651.893      39.620
  H     1186.685    -654.634      36.149
  H     1187.759    -655.766      36.936
  H     1187.881    -654.058      37.285

 3  4  5  6  7  8  9  10  11  12  13  21  23  27  28  29  30  32 0
 6-311+G(2d,p)
 ****
 34  35 0
 6-311+G(2d,p)
 ****
 1  2  14  15  16  17  18  19  20  22  24  25  26 0
 3-21G
 ****
 31  33  36  37  38  39  40  41  42  43  44  45  46 0
 3-21G
 ****


