%nproc=1
%NoSave
%Mem=1900MB
#P OB98/GEN NMR

erre ene a

0 1
  C      339.767     101.826    -205.020
  O      339.327     102.534    -203.874
  P      339.123     101.775    -202.479
  C      336.579     101.572    -202.777
  O      337.802     100.869    -202.593
  C      335.435     100.592    -203.032
  O      335.682      99.812    -204.230
  C      335.238      99.562    -201.930
  O      334.653     100.134    -200.773
  C      334.377      98.531    -202.642
  O      332.999      98.939    -202.667
  C      334.967      98.564    -204.070
  N      335.831      97.418    -204.335
  C      335.243      96.354    -205.024
  O      334.041      96.372    -205.293
  N      336.031      95.284    -205.374
  C      337.263      95.228    -204.965
  N      338.011      94.180    -205.396
  C      337.873      96.262    -204.102
  C      337.117      97.331    -203.849
  O      339.187     102.639    -201.269
  O      340.298     100.679    -202.462
  H      340.769     100.744    -201.608
  H      332.961      99.774    -203.163
  H      338.882      96.138    -203.737
  H      337.488      98.150    -203.243
  H      334.164      98.581    -204.812
  H      334.414      97.552    -202.160
  H      336.202      99.113    -201.668
  H      334.512     101.173    -203.185
  H      337.560      93.499    -206.001
  H      336.684     102.243    -203.629
  H      339.026      94.205    -205.415
  H      336.370     102.177    -201.887
  P      335.366      99.815    -199.370
  C      333.848      97.748    -199.000
  O      335.167      98.252    -199.071
  O      334.416     100.533    -198.300
  O      336.775     100.308    -199.260
  H      334.956     100.905    -197.577
  H      333.882      96.671    -199.141
  H      333.208      98.190    -199.771
  H      333.430      97.966    -198.013
  H      339.843     102.499    -205.848
  H      339.065     101.052    -205.252
  H      340.725     101.392    -204.825

 3  4  5  6  7  8  9  10  11  12  13  24  27  28  29  30  32 0
 6-311+G(2d,p)
 ****
 34  35 0
 6-311+G(2d,p)
 ****
 1  2  14  15  16  17  18  19  20  21  22  23  25  26 0
 3-21G
 ****
 31  33  36  37  38  39  40  41  42  43  44  45  46 0
 3-21G
 ****


