%nproc=1
%NoSave
%Mem=1900MB
#P OB98/GEN NMR

erre ene a

0 1
  C     -553.501      35.364     -13.490
  O     -554.816      35.749     -13.822
  P     -556.034      35.427     -12.826
  C     -557.714      34.721     -14.645
  O     -557.381      35.694     -13.664
  C     -559.191      34.835     -15.015
  O     -560.035      34.718     -13.840
  C     -559.576      36.176     -15.623
  O     -559.040      36.496     -16.886
  C     -561.093      36.125     -15.509
  O     -561.669      35.361     -16.571
  C     -561.279      35.394     -14.157
  N     -561.683      36.309     -13.091
  C     -563.019      36.259     -12.720
  O     -563.841      35.504     -13.241
  N     -563.405      37.143     -11.747
  C     -562.608      38.081     -11.155
  O     -563.030      38.871     -10.319
  C     -561.210      38.094     -11.595
  C     -560.810      37.227     -12.529
  O     -555.978      36.119     -11.506
  O     -556.015      33.827     -12.723
  H     -562.571      35.112     -16.295
  H     -556.136      33.363     -13.575
  H     -564.379      37.132     -11.477
  H     -560.547      38.816     -11.134
  H     -559.776      37.215     -12.873
  H     -562.045      34.614     -14.244
  H     -561.537      37.125     -15.552
  H     -559.234      36.968     -14.948
  H     -559.443      34.001     -15.678
  H     -557.527      33.725     -14.238
  H     -557.072      34.851     -15.525
  P     -558.093      37.766     -17.139
  C     -559.250      37.853     -19.462
  O     -558.070      38.071     -18.714
  O     -556.786      37.789     -16.420
  O     -559.009      38.965     -16.588
  H     -558.432      39.669     -16.224
  H     -559.039      38.066     -20.513
  H     -560.043      38.520     -19.121
  H     -559.567      36.809     -19.378
  H     -552.834      35.663     -14.271
  H     -553.459      34.301     -13.373
  H     -553.212      35.835     -12.574

 3  4  5  6  7  8  9  10  11  12  13  23  28  29  30  31  32 0
 6-311+G(2d,p)
 ****
 33  34 0
 6-311+G(2d,p)
 ****
 1  2  14  15  16  17  18  19  20  21  22  24  25  26  27 0
 3-21G
 ****
 35  36  37  38  39  40  41  42  43  44  45 0
 3-21G
 ****


