%nproc=1
%NoSave
%Mem=1900MB
#P OB98/GEN NMR

erre ene a

0 1
  C     -253.787     -83.069     -74.364
  O     -253.388     -84.301     -73.796
  H     -253.949     -82.347     -73.559
  H     -254.721     -83.199     -74.916
  H     -253.009     -82.689     -75.033
  P     -252.930     -85.453     -74.809
  C     -254.053     -86.624     -76.872
  O     -254.213     -85.838     -75.695
  C     -255.417     -87.116     -77.360
  O     -256.291     -86.010     -77.665
  C     -255.359     -87.901     -78.661
  O     -254.783     -89.178     -78.502
  C     -256.834     -87.926     -79.030
  O     -257.537     -88.923     -78.277
  C     -257.279     -86.503     -78.603
  N     -257.440     -85.609     -79.740
  C     -258.494     -85.913     -80.612
  O     -259.224     -86.877     -80.390
  N     -258.672     -85.127     -81.725
  C     -257.888     -84.119     -81.942
  N     -258.112     -83.391     -83.064
  C     -256.783     -83.750     -81.033
  C     -256.613     -84.532     -79.972
  O     -252.772     -86.722     -73.848
  O     -251.721     -85.142     -75.627
  H     -257.340     -88.752     -77.335
  H     -253.562     -86.905     -73.309
  H     -256.158     -82.892     -81.249
  H     -255.824     -84.333     -79.255
  H     -258.240     -86.546     -78.068
  H     -256.989     -88.157     -80.082
  H     -254.832     -87.321     -79.429
  H     -255.873     -87.705     -76.553
  H     -258.867     -83.685     -83.673
  H     -253.380     -87.468     -76.694
  H     -257.544     -82.604     -83.351
  H     -253.588     -85.990     -77.636
  P     -254.482     -90.097     -79.781
  C     -255.567     -90.384     -82.099
  O     -255.748     -89.937     -80.756
  O     -254.114     -91.511     -79.475
  O     -253.347     -89.283     -80.564
  H     -253.606     -88.389     -80.844
  H     -256.470     -90.229     -82.651
  H     -255.324     -91.426     -82.098
  H     -254.771     -89.832     -82.554

 6  7  8  9  10  11  12  13  14  15  16  26  30  31  32  33  35 0
 6-311+G(2d,p)
 ****
 37  38 0
 6-311+G(2d,p)
 ****
 1  2  3  4  5  17  18  19  20  21  22  23  24  25 0
 3-21G
 ****
 27  28  29  34  36  39  40  41  42  43  44  45  46 0
 3-21G
 ****


