%nproc=1
%NoSave
%Mem=1900MB
#P OB98/GEN NMR

erre ene a

0 1
  C     -263.598     259.843    -840.554
  O     -263.709     261.107    -841.207
  P     -265.160     261.786    -841.211
  C     -264.370     263.571    -839.497
  O     -265.331     262.571    -839.818
  C     -264.671     264.174    -838.121
  O     -264.792     263.179    -837.094
  C     -263.593     265.135    -837.639
  O     -263.749     266.403    -838.270
  C     -263.857     265.177    -836.142
  O     -264.900     266.124    -835.821
  C     -264.334     263.745    -835.838
  N     -263.077     260.921    -831.817
  C     -264.133     261.797    -831.993
  N     -264.994     261.917    -830.959
  N     -264.325     262.488    -833.083
  C     -263.396     262.268    -834.035
  C     -262.323     261.403    -833.992
  C     -262.116     260.648    -832.772
  O     -261.208     259.849    -832.579
  N     -261.622     261.407    -835.172
  C     -262.204     262.365    -835.884
  N     -263.319     262.869    -835.266
  O     -266.157     260.534    -841.071
  O     -265.443     262.581    -842.438
  H     -265.626     266.022    -836.459
  H     -266.633     260.402    -841.907
  H     -262.973     260.428    -830.956
  H     -261.875     262.701    -836.849
  H     -265.174     263.731    -835.148
  H     -262.973     265.488    -835.580
  H     -264.904     261.413    -830.091
  H     -262.598     264.725    -837.834
  H     -265.778     262.549    -831.073
  H     -265.630     264.712    -838.200
  H     -264.376     264.361    -840.251
  H     -263.376     263.117    -839.507
  P     -262.702     266.804    -839.416
  C     -264.444     267.168    -841.309
  O     -263.356     266.407    -840.820
  O     -261.524     265.739    -839.216
  O     -262.188     268.200    -839.322
  H     -260.664     266.190    -839.277
  H     -264.424     267.141    -842.403
  H     -264.391     268.202    -840.974
  H     -265.376     266.724    -840.955
  H     -262.588     259.496    -840.619
  H     -264.249     259.138    -841.028
  H     -263.874     259.947    -839.526

 3  4  5  6  7  8  9  10  11  12  23  26  30  31 0
 6-311+G(2d,p)
 ****
 33  35  36  37  38 0
 6-311+G(2d,p)
 ****
 1  2  13  14  15  16  17  18  19  20  21  22  24  25 0
 3-21G
 ****
 27  28  29  32  34  39  40  41  42  43  44  45  46  47  48  49 0
 3-21G
 ****


