%nproc=1
%NoSave
%Mem=1900MB
#P OB98/GEN NMR

erre ene a

0 1
  C     -893.340     641.661     175.229
  O     -892.200     641.279     175.985
  P     -891.500     639.880     175.628
  C     -891.290     637.627     176.890
  O     -892.090     638.761     176.616
  C     -892.120     636.524     177.569
  O     -892.460     636.933     178.914
  C     -893.440     636.224     176.834
  O     -893.760     634.825     176.977
  C     -894.480     636.995     177.633
  O     -895.780     636.452     177.466
  C     -893.900     636.868     179.048
  N     -898.010     639.283     180.740
  C     -897.920     638.108     180.037
  N     -899.090     637.545     179.633
  N     -896.780     637.524     179.727
  C     -895.690     638.202     180.166
  C     -895.660     639.385     180.897
  C     -896.920     640.016     181.209
  O     -897.070     641.074     181.814
  N     -894.390     639.746     181.191
  C     -893.620     638.824     180.609
  N     -894.390     637.889     179.955
  O     -890.000     640.098     176.177
  O     -891.490     639.531     174.176
  H     -895.940     636.359     176.498
  H     -889.390     640.230     175.421
  H     -898.900     639.702     180.937
  H     -892.540     638.804     180.621
  H     -894.140     635.885     179.487
  H     -894.500     638.043     177.308
  H     -900.000     637.962     179.793
  H     -893.450     636.492     175.778
  H     -899.050     636.694     179.082
  H     -891.510     635.624     177.646
  H     -890.480     637.914     177.563
  H     -890.850     637.244     175.967
  P     -894.960     634.281     176.064
  C     -897.220     633.200     176.784
  O     -896.230     634.165     177.042
  O     -894.550     632.753     175.792
  O     -895.180     635.058     174.808
  H     -894.960     632.450     174.947
  H     -897.250     632.480     177.601
  H     -897.040     632.661     175.831
  H     -898.190     633.702     176.709
  H     -893.697     642.608     175.576
  H     -894.108     640.926     175.346
  H     -893.074     641.737     174.196

 3  4  5  6  7  8  9  10  11  12  23  26  30  31 0
 6-311+G(2d,p)
 ****
 33  35  36  37  38 0
 6-311+G(2d,p)
 ****
 1  2  13  14  15  16  17  18  19  20  21  22  24  25 0
 3-21G
 ****
 27  28  29  32  34  39  40  41  42  43  44  45  46  47  48  49 0
 3-21G
 ****


