%nproc=1
%NoSave
%Mem=1900MB
#P OB98/GEN NMR

erre ene a

0 1
  C      -96.629     199.067      82.755
  O      -97.321     197.897      83.142
  H      -96.849     199.270      81.705
  H      -95.549     198.932      82.866
  H      -96.962     199.920      83.351
  P      -97.069     197.317      84.619
  C      -95.789     195.252      83.718
  O      -95.723     196.450      84.477
  C      -96.274     194.098      84.592
  O      -96.279     192.856      83.857
  C      -95.409     193.817      85.818
  O      -95.570     194.775      86.853
  C      -95.940     192.446      86.207
  O      -97.219     192.590      86.851
  C      -96.093     191.779      84.819
  N      -94.938     190.959      84.450
  C      -94.967     189.619      84.855
  O      -95.925     189.175      85.488
  N      -93.889     188.816      84.566
  C      -92.865     189.313      83.944
  N      -91.803     188.487      83.725
  C      -92.800     190.713      83.484
  C      -93.855     191.475      83.770
  O      -98.223     196.611      85.257
  O      -96.552     198.578      85.459
  H      -97.747     193.199      86.304
  H      -96.394     198.273      86.386
  H      -91.920     191.080      82.978
  H      -93.876     192.518      83.481
  H      -96.994     191.157      84.783
  H      -95.287     191.910      86.900
  H      -94.355     193.718      85.540
  H      -97.313     194.309      84.873
  H      -91.864     187.547      84.089
  H      -94.793     195.048      83.314
  H      -90.884     188.858      83.505
  H      -96.491     195.372      82.887
  P      -94.245     195.332      87.571
  C      -95.126     195.023      90.005
  O      -94.181     194.641      89.019
  O      -94.628     196.851      87.894
  O      -92.979     195.214      86.781
  H      -94.322     197.449      87.186
  H      -94.945     194.472      90.904
  H      -96.114     194.815      89.652
  H      -95.031     196.070      90.203

 6  7  8  9  10  11  12  13  14  15  16  26  30  31  32  33  35 0
 6-311+G(2d,p)
 ****
 37  38 0
 6-311+G(2d,p)
 ****
 1  2  3  4  5  17  18  19  20  21  22  23  24  25 0
 3-21G
 ****
 27  28  29  34  36  39  40  41  42  43  44  45  46 0
 3-21G
 ****


