%nproc=1
%NoSave
%Mem=1900MB
#P OB98/GEN NMR

erre ene a

0 1
  C       28.643    1212.121    1324.688
  O       28.157    1211.489    1323.523
  H       27.782    1212.418    1325.299
  H       29.219    1212.991    1324.428
  H       29.247    1211.416    1325.260
  P       29.233    1211.048    1322.424
  C       30.079    1213.276    1321.373
  O       29.200    1212.153    1321.270
  C       29.883    1214.174    1320.141
  O       30.466    1213.558    1318.986
  C       28.424    1214.457    1319.792
  O       27.816    1215.440    1320.638
  C       28.557    1214.900    1318.351
  O       28.856    1216.324    1318.275
  C       29.744    1214.066    1317.824
  N       29.285    1212.994    1316.957
  C       29.173    1213.257    1315.608
  O       29.474    1214.377    1315.152
  N       28.721    1212.285    1314.781
  C       28.293    1211.055    1315.195
  O       27.811    1210.221    1314.426
  C       28.361    1210.768    1316.657
  C       28.862    1211.756    1317.456
  O       28.574    1209.752    1321.737
  O       30.601    1210.751    1322.956
  H       29.047    1208.951    1322.033
  H       28.103    1216.775    1318.730
  H       28.652    1212.488    1313.822
  H       28.021    1209.841    1317.024
  H       28.918    1211.567    1318.524
  H       30.435    1214.681    1317.250
  H       27.625    1214.758    1317.800
  H       27.858    1213.497    1319.814
  H       30.400    1215.141    1320.355
  H       31.121    1212.943    1321.398
  H       29.848    1213.816    1322.297
  P       26.426    1215.035    1321.370
  C       24.877    1216.218    1319.585
  O       25.365    1216.158    1320.939
  O       26.830    1215.395    1322.881
  O       26.058    1213.616    1321.149
  H       27.500    1216.120    1322.932
  H       24.183    1217.027    1319.492
  H       24.388    1215.298    1319.341
  H       25.698    1216.373    1318.917

 6  7  8  9  10  11  12  13  14  15  16  27  31  32  33  34  35 0
 6-311+G(2d,p)
 ****
 36  37 0
 6-311+G(2d,p)
 ****
 1  2  3  4  5  17  18  19  20  21  22  23  24  25 0
 3-21G
 ****
 26  28  29  30  38  39  40  41  42  43  44  45 0
 3-21G
 ****


