%nproc=1
%NoSave
%Mem=1900MB
#P OB98/GEN NMR

erre ene a

0 1
  C     -199.212     323.876     -44.462
  O     -198.877     322.569     -44.044
  H     -198.294     324.399     -44.750
  H     -199.684     324.422     -43.641
  H     -199.884     323.841     -45.325
  P     -200.100     321.570     -43.747
  C     -199.786     321.314     -41.152
  O     -200.532     321.854     -42.228
  C     -200.413     321.706     -39.811
  O     -201.597     320.893     -39.598
  C     -199.483     321.499     -38.614
  O     -199.729     322.540     -37.665
  C     -199.945     320.173     -38.036
  O     -199.597     320.035     -36.661
  C     -201.455     320.228     -38.325
  N     -202.069     318.903     -38.339
  C     -202.299     318.304     -37.097
  O     -201.976     318.886     -36.058
  N     -202.847     317.050     -37.054
  C     -203.089     316.415     -38.159
  N     -203.611     315.165     -38.050
  C     -202.820     316.989     -39.493
  C     -202.324     318.224     -39.508
  O     -199.357     320.155     -43.673
  O     -201.205     321.637     -44.747
  H     -199.907     319.157     -36.349
  H     -198.534     320.177     -43.157
  H     -203.027     316.417     -40.385
  H     -202.106     318.726     -40.443
  H     -201.970     320.838     -37.571
  H     -199.484     319.342     -38.583
  H     -198.426     321.496     -38.894
  H     -200.747     322.745     -39.874
  H     -203.756     314.802     -37.116
  H     -198.754     321.671     -41.188
  H     -203.783     314.558     -38.840
  H     -199.775     320.224     -41.261
  P     -198.740     323.793     -37.593
  C     -196.924     322.567     -36.217
  O     -197.234     323.269     -37.416
  O     -199.142     324.890     -36.667
  O     -198.733     324.323     -39.114
  H     -198.752     325.299     -39.088
  H     -195.894     322.277     -36.230
  H     -197.539     321.695     -36.145
  H     -197.105     323.202     -35.375

 6  7  8  9  10  11  12  13  14  15  16  26  30  31  32  33  35 0
 6-311+G(2d,p)
 ****
 37  38 0
 6-311+G(2d,p)
 ****
 1  2  3  4  5  17  18  19  20  21  22  23  24  25 0
 3-21G
 ****
 27  28  29  34  36  39  40  41  42  43  44  45  46 0
 3-21G
 ****


