%nproc=1
%NoSave
%Mem=1900MB
#P OB98/GEN NMR

erre ene a

0 1
  C       13.263     -25.024     -35.297
  O       14.300     -24.081     -35.088
  P       15.264     -24.274     -33.825
  C       16.908     -26.128     -33.038
  O       15.788     -25.790     -33.841
  C       16.760     -27.548     -32.487
  O       15.728     -27.560     -31.456
  C       16.362     -28.590     -33.543
  O       16.989     -29.830     -33.184
  C       14.863     -28.701     -33.345
  O       14.315     -29.897     -33.878
  C       14.784     -28.587     -31.819
  N       13.438     -28.277     -31.341
  C       12.876     -29.142     -30.408
  O       13.442     -30.142     -29.969
  N       11.593     -28.856     -30.028
  C       10.802     -27.871     -30.542
  O        9.621     -27.740     -30.244
  C       11.449     -26.987     -31.525
  C       12.716     -27.226     -31.873
  O       14.256     -24.233     -32.584
  O       16.343     -23.251     -33.702
  H       13.395     -29.963     -33.564
  H       14.273     -23.355     -32.160
  H       11.174     -29.466     -29.344
  H       10.857     -26.181     -31.938
  H       13.211     -26.603     -32.610
  H       15.130     -29.519     -31.352
  H       14.367     -27.856     -33.835
  H       16.635     -28.306     -34.564
  H       17.703     -27.835     -32.005
  H       16.977     -25.427     -32.206
  H       17.825     -26.038     -33.630
  P       17.319     -30.872     -34.361
  C       18.821     -30.797     -36.498
  O       18.252     -30.103     -35.409
  O       15.897     -30.953     -35.095
  O       17.815     -32.193     -33.871
  H       15.481     -30.082     -35.201
  H       18.155     -31.582     -36.867
  H       19.768     -31.244     -36.188
  H       19.012     -30.089     -37.308
  H       12.711     -24.759     -36.175
  H       12.608     -25.027     -34.451
  H       13.687     -25.998     -35.423

 3  4  5  6  7  8  9  10  11  12  13  23  28  29  30  31  32 0
 6-311+G(2d,p)
 ****
 33  34 0
 6-311+G(2d,p)
 ****
 1  2  14  15  16  17  18  19  20  21  22  24  25  26 0
 3-21G
 ****
 27  35  36  37  38  39  40  41  42  43  44  45 0
 3-21G
 ****


