%nproc=1
%NoSave
%Mem=1900MB
#P OB98/GEN NMR

erre ene a

0 1
  C      259.696    -643.139     750.479
  O      259.931    -644.543     750.632
  P      258.729    -645.578     750.884
  C      259.073    -645.920     753.410
  O      258.183    -645.465     752.406
  C      258.361    -646.433     754.676
  O      259.305    -647.041     755.601
  C      257.593    -645.346     755.461
  O      256.471    -646.017     756.064
  C      258.616    -644.952     756.525
  O      258.033    -644.273     757.633
  C      259.226    -646.312     756.847
  N      262.234    -648.042     760.616
  C      261.044    -648.482     760.144
  N      260.320    -647.987     759.118
  C      260.961    -646.964     758.532
  C      262.172    -646.413     758.907
  C      262.828    -646.990     760.008
  N      264.011    -646.509     760.507
  N      262.500    -645.354     758.074
  C      261.489    -645.261     757.238
  N      260.538    -646.213     757.467
  O      259.027    -646.991     750.450
  O      257.507    -644.994     750.012
  H      258.661    -644.308     758.365
  H      257.087    -645.717     749.519
  H      260.621    -649.334     760.674
  H      261.388    -644.492     756.450
  H      258.582    -646.882     757.525
  H      259.352    -644.273     756.069
  H      257.264    -644.517     754.838
  H      257.681    -647.231     754.368
  H      259.772    -645.106     753.686
  H      264.341    -646.939     761.376
  H      264.394    -645.646     760.154
  H      259.695    -646.741     752.984
  P      255.002    -645.866     755.455
  C      255.220    -643.339     755.107
  O      255.034    -644.590     754.481
  O      253.917    -645.828     756.488
  O      254.822    -647.106     754.457
  H      253.880    -647.256     754.282
  H      254.277    -643.011     755.586
  H      255.497    -642.596     754.342
  H      256.014    -643.379     755.858
  H      260.627    -642.637     750.321
  H      259.230    -642.757     751.363
  H      259.055    -642.974     749.638

 3  4  5  6  7  8  9  10  11  12  22  25  29  30  31  32 0
 6-311+G(2d,p)
 ****
 33  36  37 0
 6-311+G(2d,p)
 ****
 1  2  13  14  15  16  17  18  19  20  21  23  24  26 0
 3-21G
 ****
 27  28  34  35  38  39  40  41  42  43  44  45  46  47  48 0
 3-21G
 ****


