%nproc=1
%NoSave
%Mem=1900MB
#P OB98/GEN NMR

erre ene a

0 1
  C     -471.561    -709.498    -997.300
  O     -470.662    -709.730    -996.210
  P     -469.449    -708.704    -996.026
  C     -469.620    -708.631    -993.450
  O     -469.671    -707.897    -994.651
  C     -469.678    -707.717    -992.208
  O     -468.551    -706.788    -992.213
  C     -470.950    -706.874    -992.138
  O     -471.293    -706.698    -990.759
  C     -470.510    -705.533    -992.700
  O     -471.398    -704.474    -992.314
  C     -469.082    -705.454    -992.125
  N     -467.150    -700.720    -992.079
  C     -467.961    -701.396    -991.221
  N     -468.460    -702.641    -991.321
  C     -468.010    -703.240    -992.429
  C     -467.175    -702.696    -993.406
  C     -466.760    -701.367    -993.214
  N     -465.969    -700.687    -994.094
  N     -466.971    -703.592    -994.429
  C     -467.644    -704.671    -994.068
  N     -468.254    -704.525    -992.854
  O     -469.742    -707.586    -997.157
  O     -468.099    -709.305    -996.203
  H     -472.196    -704.541    -992.885
  H     -469.096    -707.684    -997.877
  H     -468.259    -700.829    -990.324
  H     -467.746    -705.588    -994.646
  H     -469.085    -705.145    -991.075
  H     -470.483    -705.571    -993.796
  H     -471.811    -707.290    -992.687
  H     -469.605    -708.342    -991.315
  H     -468.703    -709.236    -993.404
  H     -465.735    -699.723    -993.886
  H     -465.693    -701.147    -994.968
  H     -470.442    -709.356    -993.432
  P     -472.465    -707.627    -990.170
  C     -470.951    -708.369    -988.209
  O     -471.735    -708.769    -989.302
  O     -472.979    -708.422    -991.473
  O     -473.553    -706.883    -989.499
  H     -473.924    -708.677    -991.344
  H     -471.114    -709.047    -987.373
  H     -471.165    -707.355    -987.876
  H     -469.888    -708.430    -988.494
  H     -472.319    -710.254    -997.305
  H     -471.019    -709.530    -998.222
  H     -472.017    -708.537    -997.188

 3  4  5  6  7  8  9  10  11  12  22  25  29  30  31  32 0
 6-311+G(2d,p)
 ****
 33  36  37 0
 6-311+G(2d,p)
 ****
 1  2  13  14  15  16  17  18  19  20  21  23  24  26 0
 3-21G
 ****
 27  28  34  35  38  39  40  41  42  43  44  45  46  47  48 0
 3-21G
 ****


