%nproc=1
%NoSave
%Mem=1900MB
#P OB98/GEN NMR

erre ene a

0 1
  C      157.456    -249.684     -87.477
  O      157.312    -249.973     -86.099
  H      156.458    -249.557     -87.909
  H      157.953    -250.514     -87.982
  H      158.021    -248.760     -87.623
  P      158.624    -250.067     -85.185
  C      160.235    -251.930     -84.402
  O      159.139    -251.592     -85.242
  C      160.673    -253.378     -84.644
  O      159.588    -254.263     -84.238
  C      161.003    -253.692     -86.104
  O      162.109    -254.599     -86.152
  C      159.752    -254.378     -86.614
  O      160.018    -255.253     -87.715
  C      159.253    -255.100     -85.362
  N      155.585    -258.341     -84.095
  C      156.933    -258.367     -83.809
  N      157.381    -259.420     -83.093
  N      157.774    -257.443     -84.195
  C      157.188    -256.431     -84.884
  C      155.863    -256.292     -85.227
  C      154.948    -257.335     -84.819
  O      153.741    -257.371     -85.059
  N      155.662    -255.137     -85.951
  C      156.857    -254.586     -86.032
  N      157.821    -255.339     -85.415
  O      158.473    -249.508     -83.803
  O      159.743    -249.277     -86.012
  H      160.431    -254.704     -88.417
  H      159.918    -248.405     -85.621
  H      154.986    -259.084     -83.789
  H      157.078    -253.649     -86.539
  H      159.735    -256.077     -85.226
  H      159.027    -253.622     -86.950
  H      156.783    -260.162     -82.743
  H      161.248    -252.790     -86.675
  H      158.363    -259.455     -82.841
  H      161.522    -253.597     -83.988
  H      159.926    -251.806     -83.359
  H      161.069    -251.247     -84.610
  P      163.545    -254.063     -86.625
  C      164.760    -253.542     -88.829
  O      163.644    -254.174     -88.223
  O      164.712    -254.618     -85.879
  O      163.419    -252.475     -86.391
  H      164.290    -252.130     -86.112
  H      164.718    -253.683     -89.889
  H      165.663    -253.971     -88.448
  H      164.741    -252.495     -88.607

 6  7  8  9  10  11  12  13  14  15  26  29  33  34 0
 6-311+G(2d,p)
 ****
 36  38  39  40  41 0
 6-311+G(2d,p)
 ****
 1  2  3  4  5  16  17  18  19  20  21  22  23  24  25 0
 3-21G
 ****
 27  28  30  31  32  35  37  42  43  44  45  46  47 0
 3-21G
 ****
 48  49 0
 3-21G
 ****


