%nproc=1
%NoSave
%Mem=1900MB
#P OB98/GEN NMR

erre ene a

0 1
  C      131.305    -125.967     -25.908
  O      130.409    -124.994     -25.365
  P      129.000    -125.505     -24.776
  C      127.954    -125.695     -27.141
  O      128.248    -126.362     -25.910
  C      127.315    -126.662     -28.145
  O      128.315    -127.607     -28.599
  C      126.166    -127.514     -27.570
  O      124.838    -126.990     -27.628
  C      126.198    -128.722     -28.509
  O      125.465    -128.421     -29.718
  C      127.685    -128.895     -28.838
  N      128.021    -133.931     -28.002
  C      127.284    -133.198     -28.874
  N      127.254    -131.860     -29.036
  C      128.101    -131.266     -28.186
  C      128.915    -131.866     -27.229
  C      128.852    -133.280     -27.153
  N      129.593    -134.011     -26.259
  N      129.640    -130.925     -26.534
  C      129.253    -129.763     -27.042
  N      128.332    -129.914     -28.050
  O      128.170    -124.468     -24.101
  O      129.458    -126.641     -23.742
  H      125.334    -129.267     -30.178
  H      128.869    -126.605     -22.956
  H      126.627    -133.770     -29.535
  H      129.610    -128.794     -26.703
  H      127.849    -129.144     -29.891
  H      125.730    -129.602     -28.066
  H      126.395    -127.835     -26.550
  H      126.952    -126.099     -29.016
  H      128.883    -125.288     -27.563
  H      129.456    -135.009     -26.240
  H      130.180    -133.538     -25.589
  H      127.316    -124.840     -26.899
  P      124.000    -126.704     -26.296
  C      122.684    -128.898     -25.687
  O      123.873    -128.129     -25.557
  O      122.700    -125.994     -26.504
  O      125.049    -125.918     -25.386
  H      125.794    -126.461     -25.071
  H      122.877    -129.908     -25.304
  H      122.384    -128.977     -26.738
  H      121.879    -128.436     -25.104
  H      132.191    -125.480     -26.257
  H      130.831    -126.472     -26.723
  H      131.563    -126.677     -25.150

 3  4  5  6  7  8  9  10  11  12  22  25  29  30  31  32 0
 6-311+G(2d,p)
 ****
 33  36  37 0
 6-311+G(2d,p)
 ****
 1  2  13  14  15  16  17  18  19  20  21  23  24  26 0
 3-21G
 ****
 27  28  34  35  38  39  40  41  42  43  44  45  46  47  48 0
 3-21G
 ****


