%nproc=1
%NoSave
%Mem=1900MB
#P OB98/GEN NMR

erre ene a

0 1
  C     -613.392      10.622    -492.293
  O     -612.183      10.924    -491.618
  P     -611.752      10.088    -490.323
  C     -609.323      10.905    -490.133
  O     -610.619      10.912    -489.543
  C     -608.444      11.991    -489.505
  O     -608.879      13.308    -489.914
  C     -608.489      12.014    -487.986
  O     -607.780      10.928    -487.411
  C     -607.896      13.393    -487.703
  O     -606.469      13.358    -487.772
  C     -608.482      14.221    -488.864
  N     -609.585      15.071    -488.447
  C     -609.310      16.436    -488.320
  O     -608.163      16.857    -488.485
  N     -610.338      17.286    -488.009
  C     -611.504      16.807    -487.719
  N     -612.501      17.705    -487.473
  C     -611.800      15.364    -487.678
  C     -610.808      14.557    -488.072
  O     -611.415       8.653    -490.572
  O     -613.011      10.207    -489.343
  H     -613.259       9.311    -489.029
  H     -606.165      12.784    -487.045
  H     -612.770      15.007    -487.360
  H     -610.935      13.480    -488.092
  H     -607.701      14.852    -489.303
  H     -608.164      13.760    -486.704
  H     -609.530      11.986    -487.638
  H     -607.412      11.840    -489.855
  H     -612.268      18.689    -487.529
  H     -609.424      11.092    -491.207
  H     -613.486      17.463    -487.559
  H     -608.869       9.919    -489.995
  P     -608.625       9.897    -486.529
  C     -607.198       7.885    -487.332
  O     -607.682       8.627    -486.235
  O     -609.705       9.323    -487.567
  O     -609.280      10.493    -485.329
  H     -610.557       9.170    -487.107
  H     -606.323       7.311    -487.012
  H     -606.905       8.533    -488.157
  H     -607.968       7.189    -487.671
  H     -613.509      11.281    -493.128
  H     -614.216      10.747    -491.622
  H     -613.364       9.610    -492.639

 3  4  5  6  7  8  9  10  11  12  13  24  27  28  29  30  32 0
 6-311+G(2d,p)
 ****
 34  35 0
 6-311+G(2d,p)
 ****
 1  2  14  15  16  17  18  19  20  21  22  23  25  26 0
 3-21G
 ****
 31  33  36  37  38  39  40  41  42  43  44  45  46 0
 3-21G
 ****


