%nproc=1
%NoSave
%Mem=1900MB
#P OB98/GEN NMR

erre ene a

0 1
  C       48.498     -64.329     176.109
  O       48.229     -65.552     176.789
  P       46.720     -66.104     176.781
  C       46.105     -65.201     179.141
  O       45.863     -65.136     177.736
  C       44.845     -65.607     179.897
  O       45.188     -65.836     181.300
  C       43.726     -64.571     179.873
  O       42.477     -65.283     179.892
  C       43.891     -63.844     181.198
  O       42.700     -63.173     181.599
  C       44.311     -65.009     182.098
  N       44.299     -65.029     187.214
  C       43.473     -65.595     186.315
  N       43.546     -65.555     184.966
  C       44.592     -64.807     184.567
  C       45.504     -64.134     185.370
  C       45.334     -64.263     186.764
  N       46.168     -63.687     187.682
  N       46.423     -63.456     184.606
  C       46.082     -63.719     183.349
  N       44.998     -64.547     183.285
  O       46.842     -67.460     177.629
  O       46.135     -66.359     175.436
  H       42.660     -62.315     181.140
  H       46.697     -68.235     177.048
  H       42.657     -66.188     186.723
  H       46.593     -63.331     182.477
  H       43.462     -65.617     182.408
  H       44.695     -63.100     181.103
  H       43.753     -63.897     179.016
  H       44.495     -66.563     179.498
  H       46.422     -64.206     179.484
  H       46.063     -63.941     188.658
  H       47.041     -63.281     187.364
  H       46.920     -65.914     179.339
  P       41.206     -64.553     179.245
  C       40.260     -64.016     181.599
  O       40.660     -63.517     180.334
  O       40.090     -65.706     179.218
  O       41.447     -63.998     177.875
  H       39.458     -65.537     178.494
  H       40.480     -63.265     182.360
  H       40.777     -64.951     181.854
  H       39.181     -64.202     181.585
  H       49.537     -64.091     176.201
  H       47.913     -63.544     176.541
  H       48.246     -64.433     175.074

 3  4  5  6  7  8  9  10  11  12  22  25  29  30  31  32 0
 6-311+G(2d,p)
 ****
 33  36  37 0
 6-311+G(2d,p)
 ****
 1  2  13  14  15  16  17  18  19  20  21  23  24  26 0
 3-21G
 ****
 27  28  34  35  38  39  40  41  42  43  44  45  46  47  48 0
 3-21G
 ****


