%nproc=1
%NoSave
%Mem=1900MB
#P OB98/GEN NMR

erre ene a

0 1
  C     -236.284     291.132       5.500
  O     -235.363     292.209       5.482
  H     -236.075     290.482       4.648
  H     -237.313     291.497       5.421
  H     -236.162     290.555       6.420
  P     -235.634     293.450       6.464
  C     -236.621     294.883       4.556
  O     -236.866     294.252       5.810
  C     -236.908     296.378       4.621
  O     -238.325     296.627       4.757
  C     -236.273     297.085       5.809
  O     -234.866     297.139       5.783
  C     -237.065     298.382       5.866
  O     -236.575     299.362       4.950
  C     -238.470     297.902       5.421
  N     -239.408     297.825       6.539
  C     -240.686     298.305       6.293
  O     -241.038     298.800       5.222
  N     -241.560     298.238       7.355
  C     -241.265     297.786       8.609
  O     -242.087     297.768       9.515
  C     -239.881     297.324       8.814
  C     -239.028     297.361       7.791
  O     -234.441     294.311       6.764
  O     -236.286     292.779       7.762
  H     -235.764     299.734       5.335
  H     -236.271     293.402       8.534
  H     -242.500     298.567       7.188
  H     -239.613     296.972       9.800
  H     -238.003     297.020       7.912
  H     -238.893     298.593       4.678
  H     -237.052     298.836       6.862
  H     -236.535     296.527       6.720
  H     -236.585     296.831       3.673
  H     -237.285     294.420       3.812
  H     -235.580     294.709       4.257
  P     -233.944     296.937       7.072
  C     -232.848     299.311       7.221
  O     -233.749     298.363       7.785
  O     -232.745     296.065       6.913
  O     -234.957     296.194       8.089
  H     -234.423     295.579       8.628
  H     -232.842     300.198       7.820
  H     -233.162     299.554       6.227
  H     -231.863     298.894       7.192

 6  7  8  9  10  11  12  13  14  15  16  26  31  32  33  34  35 0
 6-311+G(2d,p)
 ****
 36  37 0
 6-311+G(2d,p)
 ****
 1  2  3  4  5  17  18  19  20  21  22  23  24  25 0
 3-21G
 ****
 27  28  29  30  38  39  40  41  42  43  44  45 0
 3-21G
 ****


