%nproc=1
%NoSave
%Mem=1900MB
#P OB98/GEN NMR

erre ene a

0 1
  C     -207.577      57.832       3.666
  O     -206.621      57.283       4.547
  H     -207.095      58.033       2.707
  H     -207.957      58.774       4.073
  H     -208.409      57.142       3.502
  P     -207.127      56.569       5.886
  C     -208.773      54.832       4.920
  O     -207.500      55.055       5.505
  C     -208.703      53.748       3.838
  O     -207.829      54.186       2.769
  C     -208.098      52.463       4.409
  O     -208.574      51.299       3.738
  C     -206.613      52.632       4.120
  O     -205.903      51.397       4.103
  C     -206.660      53.346       2.770
  N     -202.874      54.379      -0.480
  C     -203.818      53.373      -0.531
  N     -203.728      52.516      -1.573
  N     -204.754      53.213       0.368
  C     -204.676      54.097       1.391
  C     -203.773      55.121       1.565
  C     -202.767      55.313       0.543
  O     -201.892      56.177       0.544
  N     -203.999      55.797       2.739
  C     -205.031      55.180       3.278
  N     -205.487      54.149       2.491
  O     -208.565      57.225       6.148
  O     -206.231      56.718       7.079
  H     -204.952      51.604       4.145
  H     -208.794      57.176       7.093
  H     -202.185      54.468      -1.207
  H     -205.486      55.440       4.226
  H     -206.764      52.621       1.952
  H     -206.177      53.246       4.913
  H     -202.927      52.493      -2.185
  H     -208.288      52.359       5.477
  H     -204.212      51.619      -1.470
  H     -209.692      53.588       3.396
  H     -209.096      55.782       4.477
  H     -209.502      54.563       5.688
  P     -209.949      50.655       4.254
  C     -211.717      51.981       2.838
  O     -211.018      50.770       3.066
  O     -210.463      51.701       5.349
  O     -209.796      49.281       4.814
  H     -210.327      51.343       6.247
  H     -212.380      51.859       2.007
  H     -211.017      52.762       2.624
  H     -212.281      52.237       3.710

 6  7  8  9  10  11  12  13  14  15  26  29  33  34 0
 6-311+G(2d,p)
 ****
 36  38  39  40  41 0
 6-311+G(2d,p)
 ****
 1  2  3  4  5  16  17  18  19  20  21  22  23  24  25 0
 3-21G
 ****
 27  28  30  31  32  35  37  42  43  44  45  46  47 0
 3-21G
 ****
 48  49 0
 3-21G
 ****


