%nproc=1
%NoSave
%Mem=1900MB
#P OB98/GEN NMR

erre ene a

0 1
  C       -5.808     -20.123     -20.292
  O       -6.993     -19.591     -19.738
  H       -6.068     -20.971     -20.931
  H       -5.139     -20.472     -19.501
  H       -5.305     -19.365     -20.898
  P       -6.827     -18.397     -18.681
  C       -6.391     -19.990     -16.674
  O       -5.892     -18.947     -17.501
  C       -6.033     -19.703     -15.220
  O       -4.602     -19.824     -15.034
  C       -6.383     -18.295     -14.760
  O       -7.758     -18.145     -14.452
  C       -5.497     -18.165     -13.534
  O       -6.115     -18.732     -12.370
  C       -4.241     -18.957     -13.940
  N       -3.130     -18.073     -14.282
  C       -2.539     -17.406     -13.213
  O       -2.906     -17.538     -12.047
  N       -1.526     -16.546     -13.534
  C       -1.093     -16.255     -14.794
  O       -0.215     -15.430     -15.016
  C       -1.766     -16.976     -15.885
  C       -2.743     -17.836     -15.585
  O       -8.275     -18.302     -18.007
  O       -6.396     -17.094     -19.267
  H       -8.739     -17.510     -18.334
  H       -5.519     -18.527     -11.622
  H       -1.082     -16.055     -12.773
  H       -1.448     -16.768     -16.899
  H       -3.262     -18.372     -16.373
  H       -3.917     -19.609     -13.118
  H       -5.290     -17.121     -13.312
  H       -6.063     -17.562     -15.510
  H       -6.527     -20.451     -14.585
  H       -5.938     -20.942     -16.970
  H       -7.474     -20.061     -16.806
  P       -8.528     -16.879     -15.069
  C       -8.450     -15.472     -12.848
  O       -8.056     -15.617     -14.203
  O      -10.021     -17.177     -14.578
  O       -8.359     -16.753     -16.544
  H      -10.035     -17.705     -13.761
  H       -8.034     -14.570     -12.450
  H       -8.096     -16.308     -12.282
  H       -9.518     -15.428     -12.790

 6  7  8  9  10  11  12  13  14  15  16  27  31  32  33  34  35 0
 6-311+G(2d,p)
 ****
 36  37 0
 6-311+G(2d,p)
 ****
 1  2  3  4  5  17  18  19  20  21  22  23  24  25 0
 3-21G
 ****
 26  28  29  30  38  39  40  41  42  43  44  45 0
 3-21G
 ****


