%nproc=1
%NoSave
%Mem=1900MB
#P OB98/GEN NMR

erre ene a

0 1
  C      269.939     284.229     708.368
  O      270.184     283.690     709.656
  P      269.420     284.362     710.900
  C      270.715     286.589     711.336
  O      270.526     285.218     711.699
  C      271.436     287.326     712.458
  O      270.555     287.528     713.582
  C      272.642     286.587     713.031
  O      273.803     286.753     712.226
  C      272.826     287.302     714.357
  O      273.502     288.553     714.167
  C      271.368     287.541     714.787
  N      270.898     286.317     719.672
  C      271.277     287.514     719.093
  N      271.631     288.503     719.937
  N      271.296     287.724     717.801
  C      270.908     286.639     717.076
  C      270.508     285.399     717.535
  C      270.507     285.186     718.956
  O      270.234     284.137     719.538
  N      270.193     284.566     716.506
  C      270.394     285.284     715.413
  N      270.877     286.536     715.714
  O      269.140     283.132     711.874
  O      268.171     285.084     710.545
  H      273.621     288.942     715.056
  H      268.459     283.355     712.522
  H      270.892     286.205     720.678
  H      270.236     284.947     714.398
  H      271.239     288.529     715.258
  H      273.416     286.717     715.069
  H      271.698     288.384     720.934
  H      272.412     285.535     713.201
  H      271.977     289.371     719.546
  H      271.740     288.309     712.067
  H      269.743     287.045     711.151
  H      271.299     286.629     710.412
  P      274.328     285.447     711.433
  C      274.867     283.813     713.380
  O      275.352     284.737     712.430
  O      275.255     286.071     710.277
  O      273.239     284.579     710.880
  H      275.298     285.468     709.522
  H      275.709     283.246     713.777
  H      274.163     283.113     712.916
  H      274.380     284.346     714.201
  H      270.509     283.689     707.641
  H      270.226     285.260     708.352
  H      268.897     284.145     708.138

 3  4  5  6  7  8  9  10  11  12  23  26  30  31 0
 6-311+G(2d,p)
 ****
 33  35  36  37  38 0
 6-311+G(2d,p)
 ****
 1  2  13  14  15  16  17  18  19  20  21  22  24  25 0
 3-21G
 ****
 27  28  29  32  34  39  40  41  42  43  44  45  46  47  48  49 0
 3-21G
 ****


