%nproc=1
%NoSave
%Mem=1900MB
#P OB98/GEN NMR

erre ene a

0 1
  C     -157.158     834.842     241.283
  O     -157.567     836.087     240.758
  P     -157.350     836.424     239.217
  C     -158.986     838.411     239.264
  O     -157.666     837.993     238.993
  C     -159.064     839.941     239.351
  O     -158.690     840.538     238.094
  C     -160.463     840.479     239.642
  O     -160.854     840.268     240.994
  C     -160.278     841.941     239.243
  O     -159.647     842.686     240.299
  C     -159.347     841.832     238.012
  N     -160.057     841.995     236.761
  C     -160.275     843.325     236.371
  O     -159.963     844.247     237.102
  N     -160.874     843.549     235.142
  C     -161.312     842.545     234.446
  N     -161.839     842.810     233.212
  C     -161.236     841.132     234.900
  C     -160.582     840.953     236.054
  O     -158.030     835.505     238.251
  O     -155.777     836.354     239.026
  H     -155.575     835.766     238.249
  H     -159.629     843.631     240.016
  H     -161.680     840.340     234.303
  H     -160.447     839.938     236.454
  H     -158.540     842.582     238.080
  H     -161.236     842.426     239.030
  H     -161.174     840.010     238.965
  H     -158.351     840.286     240.125
  H     -161.851     843.815     232.915
  H     -159.324     837.981     240.204
  H     -161.887     842.123     232.476
  H     -159.663     838.040     238.481
  P     -162.150     839.348     241.251
  C     -161.674     838.591     243.692
  O     -162.460     839.393     242.803
  O     -161.587     837.857     241.013
  O     -163.283     839.645     240.335
  H     -162.274     837.302     240.574
  H     -161.791     838.998     244.710
  H     -160.649     838.606     243.400
  H     -162.079     837.558     243.677
  H     -157.386     834.803     242.328
  H     -156.104     834.725     241.144
  H     -157.674     834.054     240.776

 3  4  5  6  7  8  9  10  11  12  13  24  27  28  29  30  32 0
 6-311+G(2d,p)
 ****
 34  35 0
 6-311+G(2d,p)
 ****
 1  2  14  15  16  17  18  19  20  21  22  23  25  26 0
 3-21G
 ****
 31  33  36  37  38  39  40  41  42  43  44  45  46 0
 3-21G
 ****


