%nproc=1
%NoSave
%Mem=1900MB
#P OB98/GEN NMR

erre ene a

0 1
  C      -82.120    -255.829     137.218
  O      -82.355    -254.467     137.516
  H      -82.821    -256.440     137.792
  H      -81.099    -256.103     137.502
  H      -82.273    -256.019     136.152
  P      -81.549    -253.387     136.651
  C      -80.837    -251.806     138.625
  O      -80.444    -252.732     137.618
  C      -79.612    -251.328     139.399
  O      -79.135    -252.345     140.303
  C      -78.407    -251.028     138.524
  O      -78.567    -249.857     137.755
  C      -77.316    -250.930     139.580
  O      -77.349    -249.657     140.241
  C      -77.733    -252.064     140.551
  N      -76.907    -253.254     140.406
  C      -75.896    -253.417     141.364
  O      -75.756    -252.590     142.264
  N      -75.058    -254.498     141.258
  C      -75.225    -255.355     140.298
  N      -74.354    -256.397     140.243
  C      -76.290    -255.234     139.284
  C      -77.082    -254.169     139.394
  O      -82.614    -252.207     136.482
  O      -80.979    -253.894     135.366
  H      -78.212    -249.608     140.698
  H      -82.989    -251.895     137.323
  H      -76.398    -255.978     138.505
  H      -77.889    -254.004     138.690
  H      -77.657    -251.722     141.592
  H      -76.318    -251.039     139.152
  H      -78.181    -251.892     137.885
  H      -79.904    -250.451     139.993
  H      -73.621    -256.435     140.943
  H      -81.571    -252.255     139.301
  H      -74.366    -257.105     139.524
  H      -81.321    -250.960     138.125
  P      -77.654    -249.598     136.463
  C      -76.840    -247.375     137.474
  O      -76.457    -248.638     136.944
  O      -78.385    -249.120     135.254
  O      -76.902    -250.999     136.256
  H      -76.352    -251.281     137.010
  H      -75.966    -246.828     137.758
  H      -77.463    -247.522     138.331
  H      -77.379    -246.825     136.731

 6  7  8  9  10  11  12  13  14  15  16  26  30  31  32  33  35 0
 6-311+G(2d,p)
 ****
 37  38 0
 6-311+G(2d,p)
 ****
 1  2  3  4  5  17  18  19  20  21  22  23  24  25 0
 3-21G
 ****
 27  28  29  34  36  39  40  41  42  43  44  45  46 0
 3-21G
 ****


