%nproc=1
%NoSave
%Mem=1900MB
#P OB98/GEN NMR

erre ene a

0 1
  C     -231.408    -615.862     229.072
  O     -230.901    -614.593     229.446
  H     -230.941    -616.625     229.698
  H     -231.167    -616.064     228.024
  H     -232.491    -615.897     229.219
  P     -231.629    -613.317     228.808
  C     -230.822    -611.711     230.718
  O     -230.846    -612.011     229.328
  C     -229.958    -610.477     230.973
  O     -228.561    -610.792     230.827
  C     -230.176    -609.347     229.980
  O     -231.404    -608.682     230.174
  C     -228.960    -608.475     230.270
  O     -229.189    -607.598     231.379
  C     -227.880    -609.531     230.620
  N     -226.855    -609.617     229.594
  C     -225.605    -609.095     229.950
  O     -225.434    -608.630     231.080
  N     -224.606    -609.086     229.017
  C     -224.842    -609.527     227.820
  N     -223.813    -609.454     226.928
  C     -226.144    -610.079     227.401
  C     -227.099    -610.092     228.329
  O     -233.007    -613.265     229.621
  O     -231.796    -613.367     227.328
  H     -229.523    -608.158     232.107
  H     -232.897    -613.332     230.585
  H     -226.285    -610.447     226.391
  H     -228.086    -610.485     228.107
  H     -227.393    -609.277     231.569
  H     -228.699    -607.851     229.415
  H     -230.088    -609.725     228.950
  H     -230.136    -610.144     232.003
  H     -222.957    -609.020     227.244
  H     -230.444    -612.566     231.293
  H     -223.905    -609.695     225.950
  H     -231.853    -611.528     231.038
  P     -232.236    -608.087     228.942
  C     -234.381    -609.174     229.873
  O     -233.764    -607.966     229.428
  O     -232.058    -608.809     227.649
  O     -231.780    -606.553     228.903
  H     -231.964    -606.050     229.712
  H     -235.389    -608.971     230.169
  H     -233.836    -609.567     230.706
  H     -234.380    -609.889     229.077

 6  7  8  9  10  11  12  13  14  15  16  26  30  31  32  33  35 0
 6-311+G(2d,p)
 ****
 37  38 0
 6-311+G(2d,p)
 ****
 1  2  3  4  5  17  18  19  20  21  22  23  24  25 0
 3-21G
 ****
 27  28  29  34  36  39  40  41  42  43  44  45  46 0
 3-21G
 ****


