%nproc=1
%NoSave
%Mem=1900MB
#P OB98/GEN NMR

erre ene a

0 1
  C       97.624     -99.373      32.413
  O       96.535     -99.587      33.288
  H       97.792     -98.298      32.316
  H       97.382     -99.779      31.428
  H       98.534     -99.842      32.797
  P       96.355    -101.063      33.888
  C       94.041    -101.552      32.819
  O       94.773    -101.318      34.013
  C       92.840    -100.611      32.737
  O       93.324     -99.264      32.450
  C       91.823    -100.984      31.645
  O       90.503    -100.694      32.124
  C       92.149    -100.004      30.534
  O       91.048     -99.793      29.657
  C       92.540     -98.774      31.346
  N       91.945     -94.995      28.099
  C       91.027     -95.642      28.901
  N       89.735     -95.272      28.778
  N       91.347     -96.583      29.750
  C       92.676     -96.845      29.786
  C       93.683     -96.279      29.045
  C       93.315     -95.251      28.094
  O       94.079     -94.656      27.342
  N       94.892     -96.864      29.332
  C       94.609     -97.793      30.230
  N       93.277     -97.820      30.536
  O       96.827    -100.881      35.408
  O       97.122    -102.135      33.191
  H       91.044    -100.511      28.992
  H       97.768    -101.125      35.493
  H       91.644     -94.289      27.450
  H       95.321     -98.476      30.668
  H       91.670     -98.243      31.751
  H       92.996    -100.374      29.944
  H       89.415     -94.535      28.169
  H       91.878    -102.029      31.324
  H       89.056     -95.711      29.389
  H       92.355    -100.574      33.720
  H       93.684    -102.587      32.814
  H       94.700    -101.404      31.957
  P       89.353    -101.781      31.869
  C       87.645    -100.601      30.300
  O       87.968    -101.012      31.620
  O       89.152    -102.440      33.315
  O       89.707    -102.807      30.845
  H       88.932    -103.385      33.219
  H       86.696    -100.106      30.303
  H       87.598    -101.458      29.661
  H       88.397     -99.929      29.942

 6  7  8  9  10  11  12  13  14  15  26  29  33  34 0
 6-311+G(2d,p)
 ****
 36  38  39  40  41 0
 6-311+G(2d,p)
 ****
 1  2  3  4  5  16  17  18  19  20  21  22  23  24  25 0
 3-21G
 ****
 27  28  30  31  32  35  37  42  43  44  45  46  47 0
 3-21G
 ****
 48  49 0
 3-21G
 ****


