%nproc=1
%NoSave
%Mem=1900MB
#P OB98/GEN NMR

erre ene a

0 1
  C      843.677    -683.214    -222.914
  O      843.762    -683.312    -221.501
  H      842.632    -683.223    -223.211
  H      844.175    -684.095    -223.348
  H      844.153    -682.302    -223.273
  P      845.152    -682.934    -220.813
  C      845.839    -681.214    -218.987
  O      844.804    -682.008    -219.537
  C      845.322    -680.421    -217.783
  O      844.465    -679.350    -218.251
  C      844.506    -681.258    -216.791
  O      844.790    -680.813    -215.448
  C      843.080    -680.893    -217.120
  O      842.191    -681.120    -216.026
  C      843.256    -679.424    -217.487
  N      839.381    -676.241    -217.203
  C      840.476    -676.391    -216.390
  N      840.538    -675.607    -215.277
  N      841.453    -677.225    -216.628
  C      841.278    -677.942    -217.762
  C      840.235    -677.895    -218.654
  C      839.153    -676.963    -218.372
  O      838.124    -676.802    -219.041
  N      840.395    -678.814    -219.666
  C      841.544    -679.433    -219.372
  N      842.094    -678.922    -218.223
  O      845.807    -681.905    -221.858
  O      846.064    -684.081    -220.530
  H      841.402    -680.570    -216.174
  H      846.402    -682.376    -222.461
  H      838.642    -675.589    -216.949
  H      841.968    -680.243    -219.929
  H      843.366    -678.776    -216.601
  H      842.735    -681.476    -217.966
  H      839.848    -674.910    -215.036
  H      844.694    -682.338    -216.856
  H      841.359    -675.674    -214.695
  H      846.185    -679.955    -217.282
  H      846.190    -680.503    -219.757
  H      846.681    -681.863    -218.694
  P      845.811    -681.671    -214.546
  C      847.313    -681.313    -212.457
  O      846.379    -680.755    -213.382
  O      847.076    -681.874    -215.531
  O      845.274    -682.992    -214.129
  H      847.476    -682.730    -215.374
  H      847.594    -680.569    -211.741
  H      848.182    -681.647    -212.985
  H      846.863    -682.142    -211.952

 6  7  8  9  10  11  12  13  14  15  26  29  33  34 0
 6-311+G(2d,p)
 ****
 36  38  39  40  41 0
 6-311+G(2d,p)
 ****
 1  2  3  4  5  16  17  18  19  20  21  22  23  24  25 0
 3-21G
 ****
 27  28  30  31  32  35  37  42  43  44  45  46  47 0
 3-21G
 ****
 48  49 0
 3-21G
 ****


