%nproc=1
%NoSave
%Mem=1900MB
#P OB98/GEN NMR

erre ene a

0 1
  C      774.752      26.464     486.638
  O      776.014      25.947     486.278
  H      773.982      25.941     486.060
  H      774.697      27.527     486.402
  H      774.555      26.307     487.700
  P      777.305      26.426     487.096
  C      777.684      28.082     485.156
  O      777.677      27.892     486.568
  C      778.881      28.953     484.754
  O      778.796      30.231     485.418
  C      780.225      28.364     485.148
  O      780.601      27.303     484.294
  C      781.108      29.599     485.068
  O      781.510      29.861     483.721
  C      780.154      30.703     485.581
  N      780.433      31.065     486.970
  C      781.300      32.138     487.170
  O      781.815      32.780     486.255
  N      781.601      32.418     488.473
  C      781.247      31.666     489.552
  O      781.753      31.806     490.663
  C      780.284      30.589     489.290
  C      779.933      30.338     488.024
  O      778.443      25.464     487.133
  O      776.732      26.715     488.568
  H      776.961      25.967     489.154
  H      782.007      29.082     483.423
  H      782.271      33.172     488.620
  H      779.928      30.008     490.135
  H      779.250      29.522     487.802
  H      780.251      31.607     484.956
  H      782.007      29.487     485.671
  H      780.192      28.024     486.189
  H      778.828      29.121     483.666
  H      776.756      28.585     484.865
  H      777.731      27.107     484.664
  P      781.169      25.929     484.908
  C      783.706      26.335     484.772
  O      782.572      26.246     485.627
  O      781.194      24.776     483.963
  O      780.201      25.636     486.144
  H      779.886      24.715     486.091
  H      784.577      26.548     485.356
  H      783.554      27.118     484.059
  H      783.839      25.406     484.258

 6  7  8  9  10  11  12  13  14  15  16  27  31  32  33  34  35 0
 6-311+G(2d,p)
 ****
 36  37 0
 6-311+G(2d,p)
 ****
 1  2  3  4  5  17  18  19  20  21  22  23  24  25 0
 3-21G
 ****
 26  28  29  30  38  39  40  41  42  43  44  45 0
 3-21G
 ****


