%nproc=1
%NoSave
%Mem=1900MB
#P OB98/GEN NMR

erre ene a

0 1
  C     1634.814     829.121     581.176
  O     1634.370     827.782     581.264
  H     1634.852     829.547     582.182
  H     1634.126     829.702     580.570
  H     1635.820     829.162     580.737
  P     1634.464     826.879     579.945
  C     1636.450     825.589     581.018
  O     1635.956     826.303     579.891
  C     1637.928     825.246     580.807
  O     1638.016     824.224     579.774
  C     1638.791     826.431     580.353
  O     1640.083     826.276     580.952
  C     1638.925     826.220     578.862
  O     1640.042     826.832     578.279
  C     1638.958     824.693     578.787
  N     1638.634     824.183     577.460
  C     1639.663     823.565     576.737
  O     1640.776     823.341     577.175
  N     1639.345     823.192     575.455
  C     1638.143     823.402     574.826
  O     1637.932     823.052     573.663
  C     1637.104     824.055     575.647
  C     1637.397     824.413     576.896
  O     1634.438     827.971     578.766
  O     1633.398     825.845     579.798
  H     1633.512     828.145     578.496
  H     1640.853     826.346     578.567
  H     1640.065     822.742     574.928
  H     1636.142     824.247     575.169
  H     1636.651     824.916     577.505
  H     1639.946     824.316     579.085
  H     1638.014     826.591     578.358
  H     1638.378     827.409     580.589
  H     1638.319     824.789     581.733
  H     1635.889     824.671     581.136
  H     1636.332     826.223     581.905
  P     1640.797     827.635     581.469
  C     1640.275     826.829     583.911
  O     1640.219     827.874     582.951
  O     1640.081     828.742     580.579
  O     1642.286     827.597     581.345
  H     1639.149     828.527     580.389
  H     1639.848     827.167     584.832
  H     1641.295     826.548     584.073
  H     1639.725     825.985     583.552

 6  7  8  9  10  11  12  13  14  15  16  27  31  32  33  34  35 0
 6-311+G(2d,p)
 ****
 36  37 0
 6-311+G(2d,p)
 ****
 1  2  3  4  5  17  18  19  20  21  22  23  24  25 0
 3-21G
 ****
 26  28  29  30  38  39  40  41  42  43  44  45 0
 3-21G
 ****


