%nproc=1
%NoSave
%Mem=1900MB
#P OB98/GEN NMR

erre ene a

0 1
  C     -313.729     -44.247     636.295
  O     -314.574     -44.341     635.164
  H     -312.970     -43.486     636.102
  H     -313.228     -45.200     636.477
  H     -314.308     -43.956     637.179
  P     -315.752     -45.428     635.242
  C     -317.572     -44.033     634.034
  O     -316.699     -45.152     633.972
  C     -317.705     -43.381     632.651
  O     -316.644     -42.425     632.429
  C     -317.651     -44.375     631.492
  O     -318.921     -44.977     631.272
  C     -317.231     -43.473     630.341
  O     -318.353     -42.737     629.811
  C     -316.238     -42.521     631.031
  N     -312.352     -43.257     627.888
  C     -313.608     -42.755     627.647
  N     -313.901     -42.444     626.362
  N     -314.516     -42.573     628.573
  C     -314.102     -42.955     629.806
  C     -312.872     -43.455     630.172
  C     -311.867     -43.625     629.140
  O     -310.714     -44.014     629.297
  N     -312.823     -43.704     631.522
  C     -314.030     -43.395     631.959
  N     -314.847     -42.949     630.945
  O     -316.643     -44.938     636.479
  O     -315.301     -46.844     635.419
  H     -319.074     -43.353     629.605
  H     -317.050     -45.711     636.901
  H     -311.692     -43.360     627.137
  H     -314.360     -43.471     632.989
  H     -316.278     -41.497     630.613
  H     -316.807     -44.030     629.517
  H     -313.393     -42.860     625.580
  H     -316.873     -45.138     631.665
  H     -314.827     -42.089     626.162
  H     -318.654     -42.828     632.640
  H     -317.150     -43.290     634.728
  H     -318.550     -44.352     634.392
  P     -318.956     -46.342     630.420
  C     -320.778     -47.758     631.611
  O     -320.457     -46.900     630.519
  O     -318.112     -47.366     631.315
  O     -318.409     -46.226     629.027
  H     -317.844     -48.140     630.767
  H     -321.806     -48.049     631.546
  H     -320.611     -47.240     632.532
  H     -320.158     -48.629     631.574

 6  7  8  9  10  11  12  13  14  15  26  29  33  34 0
 6-311+G(2d,p)
 ****
 36  38  39  40  41 0
 6-311+G(2d,p)
 ****
 1  2  3  4  5  16  17  18  19  20  21  22  23  24  25 0
 3-21G
 ****
 27  28  30  31  32  35  37  42  43  44  45  46  47 0
 3-21G
 ****
 48  49 0
 3-21G
 ****


