%nproc=1
%NoSave
%Mem=1900MB
#P OB98/GEN NMR

erre ene a

0 1
  C      412.572    -283.205      70.342
  O      411.452    -283.122      69.450
  P      410.896    -281.661      69.099
  C      411.741    -281.655      66.619
  O      411.839    -281.109      67.927
  C      410.860    -280.769      65.743
  O      411.547    -279.540      65.407
  C      410.478    -281.389      64.407
  O      409.480    -282.391      64.573
  C      410.030    -280.157      63.632
  O      408.686    -279.804      63.992
  C      411.013    -279.084      64.145
  N      412.075    -278.781      63.194
  C      411.773    -277.790      62.245
  O      410.687    -277.231      62.186
  N      412.770    -277.509      61.351
  C      413.997    -278.109      61.293
  O      414.862    -277.796      60.478
  C      414.234    -279.167      62.282
  C      413.280    -279.450      63.174
  O      411.348    -280.838      70.396
  O      409.432    -281.646      68.819
  H      412.200    -281.135      70.749
  H      408.470    -278.981      63.500
  H      412.579    -276.792      60.667
  H      415.185    -279.684      62.255
  H      413.432    -280.237      63.908
  H      410.473    -278.152      64.359
  H      410.042    -280.317      62.554
  H      411.365    -281.828      63.932
  H      409.962    -280.515      66.316
  H      411.302    -282.658      66.669
  H      412.746    -281.762      66.203
  P      409.641    -283.721      63.690
  C      410.169    -285.610      65.436
  O      410.653    -284.678      64.492
  O      410.516    -283.188      62.464
  O      408.342    -284.355      63.302
  H      411.242    -282.612      62.736
  H      410.933    -286.364      65.595
  H      409.254    -286.091      65.080
  H      409.970    -285.094      66.382
  H      412.837    -284.231      70.488
  H      412.312    -282.767      71.283
  H      413.403    -282.679      69.921

 3  4  5  6  7  8  9  10  11  12  13  24  28  29  30  31  32 0
 6-311+G(2d,p)
 ****
 33  34 0
 6-311+G(2d,p)
 ****
 1  2  14  15  16  17  18  19  20  21  22  23  25  26  27 0
 3-21G
 ****
 35  36  37  38  39  40  41  42  43  44  45 0
 3-21G
 ****


