%nproc=1
%NoSave
%Mem=1900MB
#P OB98/GEN NMR

erre ene a

0 1
  C     -248.237     341.895     548.736
  O     -249.329     341.584     549.575
  H     -247.857     340.966     548.299
  H     -247.436     342.361     549.315
  H     -248.543     342.560     547.926
  P     -250.179     342.786     550.210
  C     -251.570     343.133     548.069
  O     -250.659     343.712     548.994
  C     -252.321     344.231     547.319
  O     -253.266     344.877     548.206
  C     -251.422     345.350     546.805
  O     -250.698     344.948     545.659
  C     -252.442     346.450     546.568
  O     -253.108     346.283     545.309
  C     -253.430     346.232     547.739
  N     -253.211     347.192     548.825
  C     -253.463     348.527     548.526
  O     -253.857     348.917     547.426
  N     -253.185     349.426     549.523
  C     -252.562     349.132     550.701
  O     -252.111     349.991     551.454
  C     -252.376     347.704     550.989
  C     -252.693     346.811     550.046
  O     -249.527     343.509     551.345
  O     -251.539     342.077     550.675
  H     -251.512     341.935     551.641
  H     -253.384     345.345     545.277
  H     -253.324     350.399     549.297
  H     -251.954     347.428     551.946
  H     -252.533     345.752     550.221
  H     -254.465     346.331     547.391
  H     -251.975     347.437     546.568
  H     -250.732     345.666     547.598
  H     -252.882     343.769     546.497
  H     -252.286     342.513     548.622
  H     -251.013     342.499     547.372
  P     -249.542     345.883     545.063
  C     -247.391     344.889     546.068
  O     -248.346     345.945     546.135
  O     -249.994     347.212     544.553
  O     -248.906     345.010     543.878
  H     -248.864     345.561     543.070
  H     -246.647     345.033     546.823
  H     -246.926     344.889     545.104
  H     -247.883     343.952     546.226

 6  7  8  9  10  11  12  13  14  15  16  27  31  32  33  34  35 0
 6-311+G(2d,p)
 ****
 36  37 0
 6-311+G(2d,p)
 ****
 1  2  3  4  5  17  18  19  20  21  22  23  24  25 0
 3-21G
 ****
 26  28  29  30  38  39  40  41  42  43  44  45 0
 3-21G
 ****


