%nproc=1
%NoSave
%Mem=1900MB
#P OB98/GEN NMR

erre ene a

0 1
  C      156.263     108.470    -237.415
  O      156.872     107.490    -236.594
  P      156.379     107.399    -235.069
  C      155.815     104.892    -235.487
  O      155.384     106.146    -234.976
  C      156.129     103.936    -234.338
  O      157.257     104.421    -233.582
  C      155.005     103.770    -233.325
  O      153.974     102.940    -233.834
  C      155.773     103.183    -232.148
  O      156.009     101.782    -232.360
  C      157.102     103.957    -232.216
  N      158.876     105.738    -227.756
  C      158.992     104.533    -228.355
  N      158.472     104.127    -229.532
  C      157.776     105.119    -230.109
  C      157.554     106.391    -229.609
  C      158.145     106.694    -228.373
  N      158.021     107.925    -227.765
  N      156.770     107.127    -230.472
  C      156.532     106.317    -231.483
  N      157.130     105.098    -231.317
  O      155.406     108.657    -234.923
  O      157.477     107.419    -234.051
  H      155.147     101.327    -232.276
  H      155.456     109.036    -234.025
  H      159.581     103.795    -227.818
  H      155.941     106.568    -232.352
  H      157.968     103.329    -231.979
  H      155.246     103.286    -231.194
  H      154.590     104.748    -233.051
  H      156.399     102.964    -234.771
  H      156.720     105.032    -236.086
  H      158.351     108.009    -226.814
  H      157.362     108.584    -228.155
  H      155.032     104.484    -236.132
  P      152.464     103.319    -233.448
  C      152.038     104.352    -235.762
  O      152.144     104.596    -234.371
  O      152.653     103.971    -232.003
  O      151.492     102.194    -233.535
  H      153.368     104.632    -231.990
  H      151.768     105.286    -236.260
  H      151.263     103.606    -235.959
  H      152.998     104.006    -236.155
  H      156.682     108.422    -238.399
  H      156.437     109.441    -237.001
  H      155.210     108.288    -237.466

 3  4  5  6  7  8  9  10  11  12  22  25  29  30  31  32 0
 6-311+G(2d,p)
 ****
 33  36  37 0
 6-311+G(2d,p)
 ****
 1  2  13  14  15  16  17  18  19  20  21  23  24  26 0
 3-21G
 ****
 27  28  34  35  38  39  40  41  42  43  44  45  46  47  48 0
 3-21G
 ****


