%nproc=1
%NoSave
%Mem=1900MB
#P OB98/GEN NMR

erre ene a

0 1
  C      868.335    -926.353    -752.286
  O      869.421    -925.436    -752.110
  P      869.206    -923.860    -751.864
  C      870.747    -923.883    -749.787
  O      869.469    -923.542    -750.296
  C      870.745    -923.899    -748.249
  O      870.328    -922.600    -747.730
  C      869.822    -924.970    -747.634
  O      870.520    -925.476    -746.477
  C      868.618    -924.144    -747.213
  O      867.787    -924.771    -746.261
  C      869.322    -922.866    -746.730
  N      868.462    -921.710    -746.537
  C      868.359    -921.182    -745.233
  O      868.912    -921.718    -744.278
  N      867.593    -920.052    -745.040
  C      866.959    -919.511    -746.034
  N      866.233    -918.393    -745.776
  C      867.048    -920.038    -747.414
  C      867.791    -921.109    -747.581
  O      867.902    -923.346    -752.366
  O      870.427    -923.141    -752.608
  H      870.120    -922.293    -752.980
  H      868.320    -924.975    -745.483
  H      866.512    -919.541    -748.224
  H      867.920    -921.538    -748.580
  H      869.857    -923.087    -745.788
  H      868.008    -923.946    -748.104
  H      869.594    -925.786    -748.294
  H      871.778    -924.053    -747.920
  H      866.221    -918.066    -744.820
  H      871.471    -923.135    -750.137
  H      865.716    -917.888    -746.479
  H      871.034    -924.854    -750.186
  P      871.568    -926.674    -746.643
  C      873.294    -925.250    -745.307
  O      873.039    -926.059    -746.450
  O      871.541    -926.907    -748.241
  O      871.249    -927.952    -745.947
  H      871.809    -927.828    -748.439
  H      874.261    -925.552    -744.869
  H      872.524    -925.336    -744.550
  H      873.363    -924.207    -745.643
  H      868.722    -927.340    -752.433
  H      867.759    -926.064    -753.141
  H      867.713    -926.340    -751.416

 3  4  5  6  7  8  9  10  11  12  13  24  27  28  29  30  32 0
 6-311+G(2d,p)
 ****
 34  35 0
 6-311+G(2d,p)
 ****
 1  2  14  15  16  17  18  19  20  21  22  23  25  26 0
 3-21G
 ****
 31  33  36  37  38  39  40  41  42  43  44  45  46 0
 3-21G
 ****


