%nproc=1
%NoSave
%Mem=1900MB
#P OB98/GEN NMR

erre ene a

0 1
  C      -87.161     231.967     255.595
  O      -87.824     230.705     255.479
  P      -88.437     230.278     254.061
  C      -90.523     230.788     252.628
  O      -89.856     231.013     253.861
  C      -91.746     231.701     252.491
  O      -92.703     231.450     253.569
  C      -91.379     233.195     252.568
  O      -92.251     233.968     251.732
  C      -91.670     233.548     254.010
  O      -91.852     234.954     254.179
  C      -92.917     232.703     254.260
  N      -96.485     232.682     257.938
  C      -96.575     232.880     256.598
  N      -95.581     232.848     255.682
  C      -94.403     232.560     256.265
  C      -94.162     232.327     257.607
  C      -95.275     232.405     258.471
  N      -95.184     232.231     259.837
  N      -92.827     232.074     257.835
  C      -92.259     232.196     256.646
  N      -93.176     232.459     255.670
  O      -88.444     228.810     253.776
  O      -87.495     231.059     253.018
  H      -92.560     235.233     253.562
  H      -87.293     230.470     252.267
  H      -97.569     233.102     256.222
  H      -91.197     232.122     256.452
  H      -93.819     233.162     253.833
  H      -90.837     233.229     254.645
  H      -90.341     233.417     252.287
  H      -92.263     231.475     251.554
  H      -90.835     229.735     252.567
  H      -96.009     232.420     260.381
  H      -94.265     232.167     260.264
  H      -89.817     230.935     251.803
  P      -91.782     234.166     250.201
  C      -90.127     235.868     249.104
  O      -90.523     235.152     250.248
  O      -92.894     234.554     249.282
  O      -91.145     232.732     249.867
  H      -90.499     232.408     250.524
  H      -89.341     236.571     249.383
  H      -90.972     236.428     248.692
  H      -89.740     235.180     248.346
  H      -86.813     232.096     256.599
  H      -87.845     232.753     255.350
  H      -86.329     231.996     254.923

 3  4  5  6  7  8  9  10  11  12  22  25  29  30  31  32 0
 6-311+G(2d,p)
 ****
 33  36  37 0
 6-311+G(2d,p)
 ****
 1  2  13  14  15  16  17  18  19  20  21  23  24  26 0
 3-21G
 ****
 27  28  34  35  38  39  40  41  42  43  44  45  46  47  48 0
 3-21G
 ****


