%nproc=1
%NoSave
%Mem=1900MB
#P OB98/GEN NMR

erre ene a

0 1
  C      -70.794     781.258    -357.112
  O      -69.832     782.242    -357.447
  H      -71.455     781.662    -356.338
  H      -70.315     780.357    -356.716
  H      -71.394     781.002    -357.989
  P      -68.650     781.832    -358.451
  C      -69.508     783.255    -360.433
  O      -69.272     781.949    -359.920
  C      -68.658     783.498    -361.676
  O      -67.259     783.462    -361.333
  C      -68.842     782.426    -362.744
  O      -70.065     782.617    -363.434
  C      -67.589     782.624    -363.569
  O      -67.719     783.735    -364.468
  C      -66.541     782.921    -362.472
  N      -65.767     781.742    -362.091
  C      -64.496     781.636    -362.663
  O      -64.077     782.509    -363.424
  N      -63.734     780.536    -362.364
  C      -64.193     779.627    -361.560
  N      -63.393     778.561    -361.305
  C      -65.526     779.706    -360.930
  C      -66.252     780.782    -361.242
  O      -67.948     780.536    -358.173
  O      -67.650     783.081    -358.377
  H      -68.485     783.529    -365.038
  H      -66.991     782.952    -357.671
  H      -65.867     778.930    -360.265
  H      -67.242     780.912    -360.820
  H      -65.843     783.700    -362.808
  H      -67.358     781.741    -364.164
  H      -68.807     781.431    -362.294
  H      -68.885     784.492    -362.064
  H      -62.488     778.543    -361.767
  H      -69.230     783.964    -359.644
  H      -63.604     777.841    -360.634
  H      -70.570     783.396    -360.668
  P      -70.723     781.419    -364.269
  C      -71.167     780.061    -362.123
  O      -70.498     780.101    -363.379
  O      -70.285     781.316    -365.690
  O      -72.300     781.689    -364.107
  H      -72.587     782.450    -364.667
  H      -70.940     779.140    -361.627
  H      -72.223     780.132    -362.279
  H      -70.840     780.881    -361.519

 6  7  8  9  10  11  12  13  14  15  16  26  30  31  32  33  35 0
 6-311+G(2d,p)
 ****
 37  38 0
 6-311+G(2d,p)
 ****
 1  2  3  4  5  17  18  19  20  21  22  23  24  25 0
 3-21G
 ****
 27  28  29  34  36  39  40  41  42  43  44  45  46 0
 3-21G
 ****


