%nproc=1
%NoSave
%Mem=1900MB
#P OB98/GEN NMR

erre ene a

0 1
  C      203.206       6.186     542.998
  O      203.164       5.589     544.281
  H      204.018       6.916     542.980
  H      202.264       6.701     542.789
  H      203.397       5.425     542.238
  P      202.008       4.505     544.532
  C      199.422       4.620     544.497
  O      200.643       5.342     544.415
  C      198.406       5.386     545.341
  O      198.435       6.784     545.009
  C      196.963       4.931     545.150
  O      196.689       3.798     545.957
  C      196.207       6.157     545.642
  O      196.148       6.144     547.082
  C      197.098       7.319     545.166
  N      196.361      11.761     542.698
  C      196.603      11.488     544.000
  N      196.733      10.282     544.596
  C      196.599       9.292     543.700
  C      196.347       9.419     542.338
  C      196.233      10.727     541.836
  N      195.982      11.001     540.509
  N      196.267       8.181     541.737
  C      196.527       7.326     542.704
  N      196.697       7.945     543.919
  O      202.163       3.663     545.753
  O      202.038       3.702     543.145
  H      195.535       5.428     547.331
  H      202.156       4.316     542.398
  H      196.705      12.352     544.647
  H      196.621       6.252     542.576
  H      197.151       8.122     545.911
  H      195.179       6.189     545.281
  H      196.725       4.762     544.094
  H      198.705       5.294     546.394
  H      199.597       3.629     544.935
  H      195.729      11.947     540.276
  H      195.759      10.227     539.902
  H      199.047       4.485     543.478
  P      195.683       2.652     545.456
  C      193.219       2.604     544.725
  O      194.316       3.420     545.122
  O      195.565       1.489     546.380
  O      196.231       2.244     544.012
  H      195.854       1.383     543.742
  H      192.367       3.222     544.529
  H      192.986       1.913     545.508
  H      193.479       2.064     543.839

 6  7  8  9  10  11  12  13  14  15  25  28  32  33  34  35 0
 6-311+G(2d,p)
 ****
 36  39  40 0
 6-311+G(2d,p)
 ****
 1  2  3  4  5  16  17  18  19  20  21  22  23  24 0
 3-21G
 ****
 26  27  29  30  31  37  38  41  42  43  44  45  46  47 0
 3-21G
 ****
 48 0
 3-21G
 ****


