%nproc=1
%NoSave
%Mem=1900MB
#P OB98/GEN NMR

erre ene a

0 1
  C     -138.162     286.145      75.454
  O     -137.559     284.847      75.351
  P     -136.000     284.605      75.640
  C     -134.584     282.537      76.242
  O     -135.681     283.042      75.480
  C     -134.709     281.027      76.482
  O     -135.764     280.743      77.422
  C     -135.027     280.213      75.231
  O     -133.861     280.024      74.449
  C     -135.605     278.939      75.844
  O     -134.545     278.066      76.277
  C     -136.374     279.490      77.052
  N     -140.801     277.082      76.178
  C     -139.557     276.621      76.443
  N     -138.427     277.325      76.659
  C     -138.676     278.647      76.607
  C     -139.890     279.268      76.344
  C     -140.993     278.423      76.119
  N     -142.252     278.894      75.837
  N     -139.751     280.637      76.348
  C     -138.477     280.845      76.627
  N     -137.789     279.676      76.792
  O     -135.515     285.200      76.925
  O     -135.246     285.266      74.392
  H     -134.000     277.862      75.494
  H     -134.356     285.564      74.664
  H     -139.458     275.541      76.485
  H     -138.012     281.818      76.721
  H     -136.281     278.830      77.922
  H     -136.227     278.377      75.143
  H     -135.803     280.715      74.643
  H     -133.768     280.683      76.932
  H     -134.562     283.058      77.206
  H     -142.984     278.226      75.655
  H     -142.396     279.892      75.744
  H     -133.655     282.754      75.701
  P     -133.628     280.905      73.131
  C     -131.912     280.790      71.225
  O     -132.685     280.051      72.153
  O     -133.191     282.313      73.365
  O     -135.044     280.852      72.384
  H     -135.168     281.672      71.871
  H     -132.537     281.073      70.375
  H     -131.091     280.158      70.871
  H     -131.492     281.689      71.691
  H     -139.204     286.074      75.219
  H     -137.687     286.815      74.768
  H     -138.045     286.514      76.451

 3  4  5  6  7  8  9  10  11  12  22  25  29  30  31  32 0
 6-311+G(2d,p)
 ****
 33  36  37 0
 6-311+G(2d,p)
 ****
 1  2  13  14  15  16  17  18  19  20  21  23  24  26 0
 3-21G
 ****
 27  28  34  35  38  39  40  41  42  43  44  45  46  47  48 0
 3-21G
 ****


