%nproc=1
%NoSave
%Mem=1900MB
#P OB98/GEN NMR

erre ene a

0 1
  C      693.501      -5.688     143.496
  O      692.641      -6.830     143.585
  P      692.053      -7.219     145.021
  C      689.569      -7.597     144.346
  O      690.502      -6.805     145.069
  C      688.164      -7.444     144.944
  O      688.150      -7.776     146.349
  C      687.608      -6.035     144.854
  O      687.045      -5.769     143.575
  C      686.511      -6.080     145.912
  O      685.343      -6.726     145.370
  C      687.144      -6.951     146.996
  N      686.650      -5.167     151.771
  C      685.809      -5.868     150.982
  N      686.007      -6.292     149.713
  C      687.224      -5.934     149.278
  C      688.190      -5.217     149.971
  C      687.866      -4.827     151.281
  N      688.725      -4.110     152.086
  N      689.310      -5.032     149.197
  C      689.037      -5.633     148.058
  N      687.785      -6.190     148.056
  O      692.744      -6.154     145.997
  O      692.352      -8.619     145.441
  H      685.589      -7.653     145.186
  H      692.915      -6.565     146.866
  H      684.849      -6.125     151.420
  H      689.714      -5.699     147.211
  H      686.421      -7.622     147.474
  H      686.203      -5.085     146.237
  H      688.369      -5.286     145.130
  H      687.491      -8.138     144.416
  H      689.870      -8.643     144.354
  H      688.431      -3.893     153.022
  H      689.635      -3.876     151.730
  H      689.575      -7.280     143.293
  P      687.339      -4.333     142.923
  C      688.221      -5.170     140.632
  O      688.520      -4.564     141.868
  O      688.034      -3.527     144.127
  O      686.127      -3.633     142.405
  H      687.837      -2.575     144.047
  H      689.043      -4.981     139.937
  H      687.297      -4.768     140.208
  H      688.119      -6.255     140.763
  H      693.813      -5.554     142.481
  H      694.360      -5.839     144.116
  H      692.973      -4.817     143.825

 3  4  5  6  7  8  9  10  11  12  22  25  29  30  31  32 0
 6-311+G(2d,p)
 ****
 33  36  37 0
 6-311+G(2d,p)
 ****
 1  2  13  14  15  16  17  18  19  20  21  23  24  26 0
 3-21G
 ****
 27  28  34  35  38  39  40  41  42  43  44  45  46  47  48 0
 3-21G
 ****


