%nproc=1
%NoSave
%Mem=1900MB
#P OB98/GEN NMR

erre ene a

0 1
  C       35.470     111.072     103.793
  O       34.508     110.826     104.804
  P       33.052     110.268     104.430
  C       30.853     111.280     103.567
  O       32.240     111.497     103.795
  C       30.302     112.303     102.576
  O       30.996     112.153     101.314
  C       28.811     112.140     102.300
  O       28.230     113.435     102.122
  C       28.752     111.404     100.974
  O       27.522     111.678     100.281
  C       30.016     111.925     100.283
  N       30.996     110.994      95.331
  C       30.472     112.071      95.955
  N       30.216     112.241      97.271
  C       30.613     111.165      97.970
  C       31.166     109.995      97.473
  C       31.354     109.928      96.081
  N       31.900     108.832      95.448
  N       31.415     109.099      98.496
  C       31.040     109.727      99.586
  N       30.556     110.982      99.324
  O       32.344     109.563     105.534
  O       33.300     109.310     103.176
  H       27.607     111.295      99.384
  H       32.723     108.524     103.229
  H       30.221     112.911      95.312
  H       31.083     109.317     100.584
  H       29.832     112.877      99.771
  H       28.805     110.323     101.151
  H       28.287     111.604     103.098
  H       30.521     113.310     102.954
  H       30.326     111.383     104.521
  H       32.110     108.922      94.466
  H       32.326     108.115      96.020
  H       30.700     110.260     103.194
  P       27.224     113.921     103.281
  C       25.076     112.870     104.312
  O       26.104     112.777     103.352
  O       26.755     115.321     103.066
  O       28.126     113.710     104.587
  H       28.817     113.027     104.439
  H       24.439     111.984     104.230
  H       24.461     113.756     104.123
  H       25.494     112.914     105.320
  H       36.371     111.438     104.239
  H       35.089     111.801     103.108
  H       35.676     110.163     103.268

 3  4  5  6  7  8  9  10  11  12  22  25  29  30  31  32 0
 6-311+G(2d,p)
 ****
 33  36  37 0
 6-311+G(2d,p)
 ****
 1  2  13  14  15  16  17  18  19  20  21  23  24  26 0
 3-21G
 ****
 27  28  34  35  38  39  40  41  42  43  44  45  46  47  48 0
 3-21G
 ****


