%nproc=1
%NoSave
%Mem=1900MB
#P OB98/GEN NMR

erre ene a

0 1
  C       12.905     -62.018    -120.633
  O       14.237     -61.602    -120.884
  P       14.524     -60.030    -121.025
  C       14.310     -60.000    -123.614
  O       13.816     -59.513    -122.372
  C       13.520     -59.406    -124.783
  O       12.101     -59.651    -124.581
  C       13.700     -57.892    -124.943
  O       13.642     -57.555    -126.338
  C       12.464     -57.315    -124.283
  O       12.170     -56.009    -124.774
  C       11.425     -58.377    -124.647
  N        7.528     -55.622    -122.976
  C        8.331     -55.426    -124.083
  N        8.115     -54.294    -124.788
  N        9.256     -56.267    -124.468
  C        9.359     -57.352    -123.659
  C        8.613     -57.665    -122.547
  C        7.603     -56.718    -122.126
  O        6.876     -56.818    -121.139
  N        8.987     -58.870    -122.009
  C        9.992     -59.269    -122.770
  N       10.277     -58.367    -123.763
  O       16.086     -59.983    -121.377
  O       14.229     -59.229    -119.799
  H       11.390     -55.688    -124.280
  H       16.593     -59.689    -120.595
  H        6.835     -54.938    -122.714
  H       10.556     -60.184    -122.632
  H       11.062     -58.248    -125.673
  H       12.609     -57.250    -123.200
  H        7.466     -53.574    -124.509
  H       14.629     -57.499    -124.513
  H        8.722     -54.105    -125.579
  H       13.809     -59.932    -125.701
  H       14.218     -61.086    -123.633
  H       15.371     -59.746    -123.709
  P       14.505     -56.275    -126.788
  C       12.506     -54.606    -126.843
  O       13.716     -54.995    -126.228
  O       14.264     -56.209    -128.368
  O       15.953     -56.358    -126.430
  H       15.016     -55.759    -128.804
  H       11.691     -54.698    -126.117
  H       12.268     -55.219    -127.718
  H       12.586     -53.562    -127.158
  H       12.872     -63.085    -120.565
  H       12.273     -61.692    -121.432
  H       12.565     -61.591    -119.713

 3  4  5  6  7  8  9  10  11  12  23  26  30  31 0
 6-311+G(2d,p)
 ****
 33  35  36  37  38 0
 6-311+G(2d,p)
 ****
 1  2  13  14  15  16  17  18  19  20  21  22  24  25 0
 3-21G
 ****
 27  28  29  32  34  39  40  41  42  43  44  45  46  47  48  49 0
 3-21G
 ****


