%nproc=1
%NoSave
%Mem=1900MB
#P OB98/GEN NMR

erre ene a

0 1
  C      508.752      -2.214    -123.674
  O      508.855      -2.742    -122.366
  H      509.749      -2.193    -124.126
  H      508.355      -1.196    -123.644
  H      508.101      -2.848    -124.284
  P      507.513      -2.764    -121.485
  C      508.460      -1.276    -119.573
  O      507.501      -1.416    -120.619
  C      507.738      -1.135    -118.235
  O      507.212       0.212    -118.098
  C      506.533      -2.056    -118.076
  O      506.899      -3.385    -117.737
  C      505.784      -1.359    -116.951
  O      506.284      -1.741    -115.664
  C      506.058       0.133    -117.239
  N      504.892       0.795    -117.825
  C      503.717       0.710    -117.079
  O      503.636       0.124    -116.003
  N      502.613       1.291    -117.649
  C      502.559       1.889    -118.870
  O      501.525       2.343    -119.347
  C      503.827       1.929    -119.623
  C      504.926       1.387    -119.074
  O      507.809      -3.912    -120.404
  O      506.261      -3.030    -122.253
  H      507.288      -4.707    -120.620
  H      505.843      -1.155    -115.017
  H      501.750       1.247    -117.122
  H      503.820       2.398    -120.599
  H      505.861       1.398    -119.606
  H      506.321       0.657    -116.311
  H      504.725      -1.608    -116.975
  H      505.919      -2.031    -118.986
  H      508.461      -1.306    -117.425
  H      509.066      -0.378    -119.750
  H      509.117      -2.146    -119.572
  P      505.891      -4.564    -118.157
  C      504.663      -4.618    -115.827
  O      504.598      -4.382    -117.232
  O      506.659      -5.833    -117.546
  O      505.636      -4.622    -119.631
  H      507.214      -5.588    -116.781
  H      503.702      -4.443    -115.391
  H      505.380      -3.956    -115.387
  H      504.957      -5.631    -115.649

 6  7  8  9  10  11  12  13  14  15  16  27  31  32  33  34  35 0
 6-311+G(2d,p)
 ****
 36  37 0
 6-311+G(2d,p)
 ****
 1  2  3  4  5  17  18  19  20  21  22  23  24  25 0
 3-21G
 ****
 26  28  29  30  38  39  40  41  42  43  44  45 0
 3-21G
 ****


