%nproc=1
%NoSave
%Mem=1900MB
#P OB98/GEN NMR

erre ene a

0 1
  C     -185.590     150.132      74.326
  O     -185.843     151.523      74.408
  P     -187.174     152.079      73.705
  C     -185.780     153.814      72.343
  O     -186.733     152.756      72.321
  C     -184.750     153.602      71.233
  O     -184.165     152.284      71.336
  C     -185.340     153.678      69.829
  O     -185.538     155.019      69.424
  C     -184.287     152.945      69.012
  O     -183.201     153.823      68.666
  C     -183.815     151.858      69.999
  N     -184.360     150.545      69.688
  C     -183.453     149.607      69.201
  O     -182.262     149.863      69.016
  N     -183.967     148.378      68.895
  C     -185.281     148.013      68.969
  O     -185.687     146.910      68.630
  C     -186.199     149.053      69.468
  C     -185.703     150.250      69.790
  O     -187.596     153.324      74.617
  O     -188.273     151.080      73.583
  H     -183.603     154.595      68.219
  H     -188.571     153.387      74.668
  H     -183.324     147.675      68.565
  H     -187.246     148.798      69.537
  H     -186.369     151.034      70.138
  H     -182.719     151.788      69.984
  H     -184.692     152.551      68.074
  H     -186.280     153.115      69.787
  H     -183.952     154.341      71.353
  H     -185.280     153.834      73.313
  H     -186.302     154.766      72.205
  P     -187.050     155.483      69.150
  C     -186.337     156.030      66.697
  O     -187.240     155.378      67.562
  O     -186.946     157.051      69.453
  O     -188.047     154.751      69.990
  H     -186.071     157.411      69.222
  H     -185.322     156.023      67.097
  H     -186.662     157.058      66.544
  H     -186.338     155.512      65.731
  H     -184.676     149.905      74.835
  H     -185.507     149.844      73.299
  H     -186.395     149.595      74.783

 3  4  5  6  7  8  9  10  11  12  13  23  28  29  30  31  32 0
 6-311+G(2d,p)
 ****
 33  34 0
 6-311+G(2d,p)
 ****
 1  2  14  15  16  17  18  19  20  21  22  24  25  26 0
 3-21G
 ****
 27  35  36  37  38  39  40  41  42  43  44  45 0
 3-21G
 ****


