%nproc=1
%NoSave
%Mem=1900MB
#P OB98/GEN NMR

erre ene a

0 1
  C      348.008    -532.104    -237.605
  O      349.394    -532.342    -237.377
  P      350.396    -532.240    -238.627
  C      350.295    -534.804    -238.999
  O      351.116    -533.672    -238.763
  C      351.014    -536.096    -238.613
  O      352.156    -536.286    -239.500
  C      351.550    -536.128    -237.178
  O      351.469    -537.482    -236.721
  C      353.006    -535.746    -237.348
  O      353.808    -536.152    -236.235
  C      353.324    -536.447    -238.665
  N      357.901    -537.477    -240.689
  C      356.965    -538.278    -240.135
  N      355.769    -537.932    -239.619
  C      355.580    -536.598    -239.713
  C      356.459    -535.656    -240.220
  C      357.677    -536.144    -240.730
  N      358.631    -535.333    -241.309
  N      355.929    -534.392    -240.123
  C      354.744    -534.562    -239.560
  N      354.481    -535.882    -239.316
  O      351.555    -531.292    -238.069
  O      349.799    -531.696    -239.880
  H      353.661    -537.104    -236.086
  H      351.533    -530.429    -238.533
  H      357.206    -539.340    -240.108
  H      354.052    -533.772    -239.314
  H      353.496    -537.521    -238.530
  H      353.098    -534.657    -237.438
  H      351.014    -535.463    -236.487
  H      350.331    -536.940    -238.786
  H      350.049    -534.847    -240.065
  H      359.407    -535.770    -241.775
  H      358.389    -534.372    -241.515
  H      349.364    -534.710    -238.431
  P      350.281    -537.841    -235.701
  C      351.544    -538.648    -233.586
  O      350.822    -539.008    -234.752
  O      349.202    -538.575    -236.634
  O      349.693    -536.651    -235.014
  H      348.313    -538.454    -236.267
  H      351.336    -539.380    -232.804
  H      351.267    -537.652    -233.221
  H      352.613    -538.661    -233.808
  H      347.472    -532.207    -236.685
  H      347.637    -532.813    -238.315
  H      347.874    -531.113    -237.986

 3  4  5  6  7  8  9  10  11  12  22  25  29  30  31  32 0
 6-311+G(2d,p)
 ****
 33  36  37 0
 6-311+G(2d,p)
 ****
 1  2  13  14  15  16  17  18  19  20  21  23  24  26 0
 3-21G
 ****
 27  28  34  35  38  39  40  41  42  43  44  45  46  47  48 0
 3-21G
 ****


