%nproc=1
%NoSave
%Mem=1900MB
#P OB98/GEN NMR

erre ene a

0 1
  C     -283.810     -45.309      73.459
  O     -283.721     -45.159      72.056
  H     -284.857     -45.217      73.760
  H     -283.232     -44.526      73.959
  H     -283.439     -46.292      73.763
  P     -282.279     -45.370      71.389
  C     -281.851     -47.935      71.585
  O     -282.282     -46.853      70.771
  C     -282.094     -49.260      70.859
  O     -283.356     -49.166      70.139
  C     -281.004     -49.603      69.839
  O     -280.786     -51.018      69.840
  C     -281.621     -49.179      68.513
  O     -281.068     -49.843      67.388
  C     -283.096     -49.515      68.761
  N     -283.995     -48.788      67.868
  C     -285.092     -49.477      67.363
  O     -285.402     -50.630      67.673
  N     -285.863     -48.791      66.459
  C     -285.632     -47.518      66.003
  O     -286.344     -46.967      65.174
  C     -284.449     -46.848      66.568
  C     -283.699     -47.502      67.455
  O     -281.305     -45.507      72.654
  O     -281.840     -44.307      70.439
  H     -280.957     -44.632      72.914
  H     -281.172     -50.808      67.525
  H     -286.664     -49.273      66.085
  H     -284.231     -45.845      66.220
  H     -282.814     -47.036      67.879
  H     -283.263     -50.595      68.657
  H     -281.490     -48.101      68.368
  H     -280.063     -49.085      70.030
  H     -282.204     -50.060      71.604
  H     -282.418     -47.925      72.522
  H     -280.784     -47.816      71.810
  P     -279.386     -51.549      70.419
  C     -280.152     -52.216      72.829
  O     -279.760     -52.644      71.537
  O     -278.885     -50.283      71.251
  O     -278.452     -52.017      69.351
  H     -279.607     -49.804      71.700
  H     -280.362     -53.070      73.439
  H     -281.029     -51.608      72.752
  H     -279.361     -51.647      73.272

 6  7  8  9  10  11  12  13  14  15  16  27  31  32  33  34  35 0
 6-311+G(2d,p)
 ****
 36  37 0
 6-311+G(2d,p)
 ****
 1  2  3  4  5  17  18  19  20  21  22  23  24  25 0
 3-21G
 ****
 26  28  29  30  38  39  40  41  42  43  44  45 0
 3-21G
 ****


