%nproc=1
%NoSave
%Mem=1900MB
#P OB98/GEN NMR

erre ene a

0 1
  C      -32.575     -75.682     -40.034
  O      -32.274     -74.421     -40.598
  H      -33.541     -76.017     -40.421
  H      -32.639     -75.605     -38.945
  H      -31.811     -76.411     -40.316
  P      -30.904     -73.733     -40.128
  C      -30.479     -72.748     -42.484
  O      -30.730     -72.478     -41.112
  C      -29.935     -71.506     -43.184
  O      -31.014     -70.631     -43.557
  C      -28.984     -70.672     -42.334
  O      -27.672     -71.205     -42.389
  C      -29.068     -69.327     -43.041
  O      -28.214     -69.337     -44.201
  C      -30.541     -69.263     -43.477
  N      -32.084     -64.596     -41.997
  C      -31.060     -64.994     -42.780
  N      -30.674     -66.251     -43.087
  C      -31.479     -67.153     -42.500
  C      -32.562     -66.895     -41.672
  C      -32.863     -65.545     -41.428
  N      -33.909     -65.143     -40.626
  N      -33.147     -68.069     -41.250
  C      -32.467     -69.017     -41.860
  N      -31.424     -68.517     -42.599
  O      -29.729     -74.644     -40.010
  O      -31.365     -73.037     -38.761
  H      -28.561     -70.023     -44.801
  H      -32.249     -72.643     -38.860
  H      -30.467     -64.196     -43.218
  H      -32.699     -70.076     -41.819
  H      -30.650     -68.820     -44.474
  H      -28.738     -68.500     -42.410
  H      -29.348     -70.561     -41.306
  H      -29.444     -71.829     -44.112
  H      -31.400     -73.078     -42.979
  H      -33.933     -64.173     -40.353
  H      -34.403     -65.851     -40.104
  H      -29.750     -73.563     -42.534
  P      -26.419     -70.384     -41.814
  C      -25.225     -72.435     -40.826
  O      -25.200     -71.426     -41.828
  O      -26.673     -69.698     -40.518
  O      -26.038     -69.370     -42.990
  H      -25.469     -68.657     -42.643
  H      -24.368     -73.066     -40.934
  H      -26.115     -73.020     -40.931
  H      -25.211     -71.978     -39.859

 6  7  8  9  10  11  12  13  14  15  25  28  32  33  34  35 0
 6-311+G(2d,p)
 ****
 36  39  40 0
 6-311+G(2d,p)
 ****
 1  2  3  4  5  16  17  18  19  20  21  22  23  24 0
 3-21G
 ****
 26  27  29  30  31  37  38  41  42  43  44  45  46  47 0
 3-21G
 ****
 48 0
 3-21G
 ****


