%nproc=1
%NoSave
%Mem=1900MB
#P OB98/GEN NMR

erre ene a

0 1
  C     -432.680       6.572     201.805
  O     -432.375       5.728     200.694
  P     -431.146       4.712     200.845
  C     -429.645       5.750     198.959
  O     -429.820       5.459     200.334
  C     -428.437       6.683     198.739
  O     -428.123       6.694     197.317
  C     -428.672       8.144     199.113
  O     -427.396       8.789     199.267
  C     -429.360       8.680     197.872
  O     -429.308      10.101     197.810
  C     -428.617       7.929     196.737
  N     -429.479       7.629     195.570
  C     -428.999       7.946     194.294
  O     -427.904       8.459     194.080
  N     -429.848       7.679     193.251
  C     -431.080       7.105     193.351
  O     -431.839       6.972     192.392
  C     -431.478       6.669     194.695
  C     -430.680       6.951     195.724
  O     -431.430       3.603     199.730
  O     -431.023       4.116     202.214
  H     -429.966      10.382     197.127
  H     -431.750       2.781     200.145
  H     -429.543       7.963     192.334
  H     -432.423       6.145     194.799
  H     -430.963       6.656     196.732
  H     -427.763       8.514     196.369
  H     -430.413       8.397     197.880
  H     -429.277       8.294     200.012
  H     -427.571       6.280     199.271
  H     -430.557       6.203     198.553
  H     -429.485       4.815     198.406
  P     -426.840       8.999     200.759
  C     -428.367      10.996     201.317
  O     -428.047       9.644     201.601
  O     -425.526       9.698     200.868
  O     -426.774       7.504     201.334
  H     -426.182       7.470     202.103
  H     -429.436      11.149     201.516
  H     -428.167      11.244     200.267
  H     -427.785      11.652     201.970
  H     -433.517       7.192     201.562
  H     -431.833       7.187     202.029
  H     -432.918       5.969     202.656

 3  4  5  6  7  8  9  10  11  12  13  23  28  29  30  31  32 0
 6-311+G(2d,p)
 ****
 33  34 0
 6-311+G(2d,p)
 ****
 1  2  14  15  16  17  18  19  20  21  22  24  25  26  27 0
 3-21G
 ****
 35  36  37  38  39  40  41  42  43  44  45 0
 3-21G
 ****


