%nproc=1
%NoSave
%Mem=1900MB
#P OB98/GEN NMR

erre ene a

0 1
  C     -104.660    -411.994    -486.686
  O     -105.696    -412.411    -487.553
  P     -107.107    -411.634    -487.460
  C     -108.443    -412.012    -489.658
  O     -107.493    -411.221    -488.961
  C     -107.923    -412.359    -491.058
  O     -106.875    -413.345    -490.963
  C     -108.966    -412.972    -491.983
  O     -109.796    -411.994    -492.582
  C     -108.080    -413.632    -493.033
  O     -107.630    -412.652    -493.972
  C     -106.917    -414.139    -492.165
  N     -104.691    -418.698    -492.362
  C     -104.171    -417.447    -492.645
  N     -102.901    -417.412    -493.100
  N     -104.835    -416.339    -492.491
  C     -106.109    -416.518    -492.051
  C     -106.732    -417.710    -491.734
  C     -105.979    -418.943    -491.914
  O     -106.417    -420.070    -491.743
  N     -108.009    -417.500    -491.306
  C     -108.164    -416.188    -491.339
  N     -107.047    -415.554    -491.826
  O     -106.721    -410.237    -486.779
  O     -108.168    -412.365    -486.697
  H     -108.429    -412.259    -494.382
  H     -107.520    -409.802    -486.424
  H     -104.139    -419.528    -492.514
  H     -109.064    -415.653    -491.044
  H     -105.942    -414.024    -492.682
  H     -108.612    -414.406    -493.592
  H     -102.356    -418.243    -493.304
  H     -109.561    -413.736    -491.463
  H     -102.514    -416.518    -493.378
  H     -107.501    -411.452    -491.503
  H     -109.383    -411.437    -489.760
  H     -108.653    -412.928    -489.100
  P     -111.390    -412.245    -492.515
  C     -112.145    -409.896    -491.715
  O     -111.925    -411.246    -491.369
  O     -111.504    -413.691    -491.834
  O     -112.089    -412.171    -493.829
  H     -112.334    -414.138    -492.103
  H     -112.747    -409.424    -490.909
  H     -112.697    -409.795    -492.649
  H     -111.188    -409.344    -491.776
  H     -103.790    -412.593    -486.856
  H     -104.978    -412.107    -485.670
  H     -104.429    -410.967    -486.875

 3  4  5  6  7  8  9  10  11  12  23  26  30  31 0
 6-311+G(2d,p)
 ****
 33  35  36  37  38 0
 6-311+G(2d,p)
 ****
 1  2  13  14  15  16  17  18  19  20  21  22  24  25 0
 3-21G
 ****
 27  28  29  32  34  39  40  41  42  43  44  45  46  47  48  49 0
 3-21G
 ****


