%nproc=1
%NoSave
%Mem=1900MB
#P OB98/GEN NMR

erre ene a

0 1
  C      697.684     300.699     136.359
  O      697.360     299.361     136.764
  P      696.193     299.161     137.837
  C      694.474     298.191     136.135
  O      694.780     299.218     137.062
  C      692.965     298.127     135.887
  O      692.255     297.644     137.050
  C      692.337     299.467     135.566
  O      692.504     299.824     134.193
  C      690.866     299.192     135.860
  O      690.274     298.494     134.749
  C      690.945     298.281     137.079
  N      687.765     299.409     140.927
  C      687.588     298.709     139.790
  N      688.476     298.471     138.801
  C      689.667     299.024     139.092
  C      689.999     299.763     140.219
  C      688.983     299.946     141.172
  N      689.171     300.660     142.334
  N      691.314     300.171     140.162
  C      691.773     299.681     139.031
  N      690.813     298.985     138.345
  O      696.206     300.536     138.656
  O      696.380     297.985     138.732
  H      689.351     298.298     134.990
  H      695.970     300.369     139.589
  H      686.598     298.291     139.641
  H      692.789     299.800     138.669
  H      690.188     297.493     137.065
  H      690.292     300.113     136.000
  H      692.719     300.261     136.229
  H      692.782     297.425     135.050
  H      694.835     297.226     136.500
  H      688.403     300.727     142.985
  H      690.078     301.046     142.527
  H      695.009     298.380     135.199
  P      693.870     300.542     133.769
  C      694.312     298.398     132.380
  O      694.836     299.380     133.234
  O      694.502     300.971     135.184
  O      693.691     301.707     132.859
  H      695.040     301.778     135.083
  H      695.136     297.880     131.885
  H      693.665     298.846     131.614
  H      693.741     297.663     132.955
  H      698.478     300.672     135.642
  H      697.993     301.265     137.213
  H      696.823     301.157     135.920

 3  4  5  6  7  8  9  10  11  12  22  25  29  30  31  32 0
 6-311+G(2d,p)
 ****
 33  36  37 0
 6-311+G(2d,p)
 ****
 1  2  13  14  15  16  17  18  19  20  21  23  24  26 0
 3-21G
 ****
 27  28  34  35  38  39  40  41  42  43  44  45  46  47  48 0
 3-21G
 ****


