%nproc=1
%NoSave
%Mem=1900MB
#P OB98/GEN NMR

erre ene a

0 1
  C      261.303     -88.769      34.810
  O      260.188     -88.997      35.650
  H      261.765     -87.820      35.090
  H      260.980     -88.715      33.767
  H      262.037     -89.571      34.932
  P      259.392     -90.371      35.424
  C      257.072     -89.267      34.969
  O      258.165     -90.014      34.452
  C      255.749     -89.949      34.611
  O      254.652     -89.050      34.958
  C      255.606     -90.274      33.115
  O      254.781     -91.443      32.977
  C      254.845     -89.061      32.606
  O      254.283     -89.324      31.342
  C      253.867     -88.869      33.761
  N      249.792     -86.243      32.187
  C      250.099     -87.554      32.115
  N      251.208     -88.179      32.568
  C      252.029     -87.305      33.173
  C      251.851     -85.940      33.322
  C      250.665     -85.403      32.789
  N      250.355     -84.064      32.841
  N      252.931     -85.378      33.977
  C      253.745     -86.386      34.222
  N      253.238     -87.568      33.756
  O      258.692     -90.627      36.841
  O      260.219     -91.533      34.990
  H      253.769     -90.157      31.351
  H      259.262     -91.191      37.396
  H      249.364     -88.187      31.626
  H      254.703     -86.318      34.719
  H      253.070     -89.622      33.762
  H      255.507     -88.196      32.497
  H      256.565     -90.438      32.613
  H      255.625     -90.849      35.228
  H      257.103     -88.260      34.541
  H      257.165     -89.197      36.058
  H      249.497     -83.756      32.410
  H      251.013     -83.423      33.257
  P      255.351     -92.712      32.176
  C      254.862     -91.980      29.721
  O      255.835     -92.280      30.709
  O      254.015     -93.537      31.862
  O      256.317     -93.564      32.932
  H      254.154     -94.484      32.062
  H      255.352     -91.712      28.808
  H      254.256     -91.163      30.054
  H      254.244     -92.838      29.556

 6  7  8  9  10  11  12  13  14  15  25  28  32  33  34  35 0
 6-311+G(2d,p)
 ****
 36  37  40 0
 6-311+G(2d,p)
 ****
 1  2  3  4  5  16  17  18  19  20  21  22  23  24 0
 3-21G
 ****
 26  27  29  30  31  38  39 41  42  43  44  45  46  47  48 0
 3-21G
 ****


