%nproc=1
%NoSave
%Mem=1900MB
#P OB98/GEN NMR

erre ene a

0 1
  C       18.187     -23.884     -39.265
  O       16.938     -24.206     -39.852
  P       15.611     -23.781     -39.051
  C       15.066     -26.194     -38.258
  O       15.419     -24.867     -37.885
  C       13.996     -26.767     -37.326
  O       14.498     -26.747     -35.968
  C       12.671     -26.004     -37.353
  O       11.615     -26.957     -37.221
  C       12.726     -25.155     -36.098
  O       11.422     -24.803     -35.641
  C       13.521     -26.069     -35.151
  N       14.153     -25.324     -34.068
  C       13.688     -25.575     -32.774
  O       12.733     -26.333     -32.599
  N       14.279     -24.925     -31.720
  C       15.182     -24.022     -31.948
  N       15.739     -23.407     -30.871
  C       15.612     -23.638     -33.307
  C       15.079     -24.337     -34.307
  O       14.442     -24.136     -40.083
  O       15.575     -22.351     -38.623
  H       11.511     -24.397     -34.750
  H       13.692     -23.520     -39.984
  H       16.341     -22.853     -33.443
  H       15.353     -24.142     -35.335
  H       12.866     -26.833     -34.714
  H       13.284     -24.231     -36.298
  H       12.533     -25.424     -38.270
  H       13.835     -27.817     -37.597
  H       15.416     -23.677     -29.951
  H       15.953     -26.830     -38.192
  H       16.448     -22.691     -30.952
  H       14.719     -26.199     -39.295
  P       10.283     -26.716     -38.080
  C        9.119     -25.606     -36.080
  O        9.580     -25.442     -37.406
  O        9.347     -27.911     -37.559
  O       10.388     -26.724     -39.568
  H        8.511     -27.915     -38.060
  H        8.792     -24.634     -35.701
  H        9.921     -25.982     -35.439
  H        8.269     -26.294     -36.063
  H       18.978     -24.223     -39.901
  H       18.267     -24.362     -38.311
  H       18.259     -22.824     -39.140

 3  4  5  6  7  8  9  10  11  12  13  21  23  27  28  29  30  32 0
 6-311+G(2d,p)
 ****
 34  35 0
 6-311+G(2d,p)
 ****
 1  2  14  15  16  17  18  19  20  22  24  25  26 0
 3-21G
 ****
 31  33  36  37  38  39  40  41  42  43  44  45  46 0
 3-21G
 ****


