%nproc=1
%NoSave
%Mem=1900MB
#P OB98/GEN NMR

erre ene a

0 1
  C      -26.239     -34.927      67.571
  O      -25.744     -36.150      68.115
  P      -25.332     -36.195      69.663
  C      -23.195     -35.844      71.058
  O      -23.828     -35.652      69.798
  C      -21.918     -36.672      70.902
  O      -22.204     -38.012      70.455
  C      -20.955     -36.102      69.876
  O      -20.294     -34.955      70.382
  C      -20.059     -37.302      69.607
  O      -19.041     -37.421      70.614
  C      -21.053     -38.479      69.719
  N      -21.433     -39.034      68.429
  C      -20.544     -39.958      67.871
  O      -19.491     -40.232      68.447
  N      -20.866     -40.536      66.668
  C      -21.972     -40.213      66.073
  N      -22.240     -40.819      64.886
  C      -22.930     -39.234      66.621
  C      -22.597     -38.683      67.786
  O      -25.610     -37.480      70.369
  O      -26.191     -34.994      70.293
  H      -18.335     -36.794      70.359
  H      -26.398     -35.209      71.223
  H      -23.841     -39.002      66.089
  H      -23.243     -37.951      68.259
  H      -20.614     -39.291      70.314
  H      -19.550     -37.222      68.642
  H      -21.502     -35.839      68.961
  H      -21.427     -36.729      71.883
  H      -21.561     -41.478      64.525
  H      -23.884     -36.348      71.739
  H      -23.097     -40.672      64.371
  H      -22.978     -34.864      71.497
  P      -20.758     -33.524      69.830
  C      -20.679     -32.273      67.562
  O      -20.437     -33.477      68.263
  O      -19.671     -32.527      70.460
  O      -22.144     -33.123      70.216
  H      -20.090     -31.671      70.658
  H      -20.129     -32.303      66.617
  H      -20.346     -31.404      68.134
  H      -21.746     -32.182      67.344
  H      -26.466     -35.064      66.534
  H      -25.496     -34.164      67.675
  H      -27.125     -34.636      68.095

 3  4  5  6  7  8  9  10  11  12  13  23  27  28  29  30  32 0
 6-311+G(2d,p)
 ****
 34  35 0
 6-311+G(2d,p)
 ****
 1  2  14  15  16  17  18  19  20  21  22  24  25  26 0
 3-21G
 ****
 31  33  36  37  38  39  40  41  42  43  44  45  46 0
 3-21G
 ****


