%nproc=1
%NoSave
%Mem=1900MB
#P OB98/GEN NMR

erre ene a

0 1
  C       19.772    -356.355      71.496
  O       18.541    -356.941      71.093
  P       17.494    -356.010      70.306
  C       15.483    -355.495      71.871
  O       16.784    -355.113      71.434
  C       15.572    -356.585      72.933
  O       16.529    -356.215      73.945
  C       14.270    -356.852      73.674
  O       13.403    -357.709      72.947
  C       14.789    -357.561      74.919
  O       15.081    -358.935      74.613
  C       16.090    -356.794      75.202
  N       18.043    -354.675      79.429
  C       18.401    -355.770      78.724
  N       17.819    -356.282      77.615
  C       16.747    -355.549      77.263
  C       16.243    -354.433      77.908
  C       16.947    -353.983      79.036
  N       16.601    -352.848      79.733
  N       15.126    -353.957      77.258
  C       14.959    -354.768      76.232
  N       15.921    -355.741      76.186
  O       16.348    -357.042      69.875
  O       18.060    -355.274      69.140
  H       15.736    -358.935      73.886
  H       15.861    -356.692      69.107
  H       19.270    -356.313      79.095
  H       14.170    -354.686      75.494
  H       16.889    -357.454      75.559
  H       14.062    -357.565      75.741
  H       13.778    -355.917      73.962
  H       15.935    -357.502      72.448
  H       14.917    -355.879      71.013
  H       17.257    -352.488      80.414
  H       15.911    -352.226      79.322
  H       14.967    -354.616      72.265
  P       11.854    -357.700      73.370
  C       11.127    -359.668      74.904
  O       11.796    -358.426      74.793
  O       11.196    -358.758      72.368
  O       11.205    -356.357      73.282
  H       10.247    -358.563      72.236
  H       11.441    -360.159      75.825
  H       11.365    -360.327      74.057
  H       10.044    -359.501      74.945
  H       20.365    -357.086      72.005
  H       19.578    -355.533      72.153
  H       20.300    -356.005      70.633

 3  4  5  6  7  8  9  10  11  12  22  25  29  30  31  32 0
 6-311+G(2d,p)
 ****
 33  36  37 0
 6-311+G(2d,p)
 ****
 1  2  13  14  15  16  17  18  19  20  21  23  24  26 0
 3-21G
 ****
 27  28  34  35  38  39  40  41  42  43  44  45  46  47  48 0
 3-21G
 ****


