%nproc=1
%NoSave
%Mem=1900MB
#P OB98/GEN NMR

erre ene a

0 1
  C      333.909     123.972     438.899
  O      333.748     123.238     437.698
  H      334.393     124.919     438.664
  H      334.546     123.419     439.594
  H      332.940     124.175     439.362
  P      332.965     121.834     437.750
  C      333.690     120.539     435.651
  O      332.714     121.396     436.221
  C      333.609     120.583     434.128
  O      332.357     119.989     433.704
  C      333.667     122.000     433.539
  O      334.428     121.959     432.328
  C      332.224     122.325     433.233
  O      332.091     123.275     432.181
  C      331.666     120.945     432.873
  N      327.164     121.435     430.640
  C      328.433     121.494     430.106
  N      328.522     121.754     428.775
  N      329.519     121.324     430.803
  C      329.284     121.063     432.111
  C      328.073     120.974     432.755
  C      326.878     121.180     431.981
  O      325.724     121.149     432.396
  N      328.244     120.723     434.102
  C      329.555     120.653     434.255
  N      330.232     120.866     433.088
  O      331.742     121.812     438.607
  O      334.069     120.798     438.258
  H      331.148     123.526     432.130
  H      333.957     120.614     439.208
  H      326.356     121.581     430.051
  H      330.061     120.470     435.204
  H      331.843     120.675     431.820
  H      331.730     122.727     434.123
  H      327.726     121.877     428.175
  H      334.120     122.730     434.228
  H      329.452     121.781     428.363
  H      334.416     119.954     433.712
  H      333.499     119.516     435.999
  H      334.693     120.851     435.979
  P      335.951     122.451     432.348
  C      335.899     123.203     429.883
  O      336.525     122.368     430.845
  O      336.819     121.828     433.400
  O      335.818     124.037     432.577
  H      336.605     124.350     433.059
  H      336.364     123.060     428.930
  H      336.000     124.226     430.179
  H      334.861     122.952     429.815

 6  7  8  9  10  11  12  13  14  15  26  29  33  34 0
 6-311+G(2d,p)
 ****
 36  38  39  40  41 0
 6-311+G(2d,p)
 ****
 1  2  3  4  5  16  17  18  19  20  21  22  23  24  25 0
 3-21G
 ****
 27  28  30  31  32  35  37  42  43  44  45  46  47 0
 3-21G
 ****
 48  49 0
 3-21G
 ****


