%nproc=1
%NoSave
%Mem=1900MB
#P OB98/GEN NMR

erre ene a

0 1
  C      -65.569     286.896     191.113
  O      -64.548     286.212     191.811
  H      -65.655     286.476     190.108
  H      -65.313     287.958     191.031
  H      -66.530     286.784     191.620
  P      -64.479     286.439     193.398
  C      -62.240     287.746     193.218
  O      -63.600     287.764     193.633
  C      -61.787     289.149     192.823
  O      -60.373     289.154     192.506
  C      -62.501     289.720     191.604
  O      -63.750     290.305     191.958
  C      -61.510     290.787     191.169
  O      -61.621     291.941     192.034
  C      -60.163     290.082     191.411
  N      -57.565     290.434     187.064
  C      -57.948     291.420     187.953
  N      -57.595     292.692     187.631
  N      -58.622     291.201     189.051
  C      -58.925     289.886     189.232
  C      -58.609     288.821     188.417
  C      -57.852     289.080     187.215
  O      -57.481     288.242     186.402
  N      -59.089     287.640     188.936
  C      -59.714     287.997     190.033
  N      -59.650     289.353     190.259
  O      -63.516     285.251     193.884
  O      -65.791     286.393     194.104
  H      -62.553     292.238     191.984
  H      -64.058     284.539     194.278
  H      -57.054     290.667     186.229
  H      -60.224     287.317     190.704
  H      -59.378     290.782     191.717
  H      -61.681     291.139     190.147
  H      -57.095     292.934     186.790
  H      -62.611     288.973     190.811
  H      -57.865     293.428     188.271
  H      -61.923     289.801     193.698
  H      -62.141     287.075     192.359
  H      -61.625     287.369     194.041
  P      -64.405     291.361     190.941
  C      -64.287     293.322     192.645
  O      -63.878     292.817     191.375
  O      -65.944     291.370     191.391
  O      -64.264     291.036     189.495
  H      -66.500     290.967     190.690
  H      -63.863     294.293     192.796
  H      -63.951     292.661     193.417
  H      -65.354     293.391     192.675

 6  7  8  9  10  11  12  13  14  15  26  29  33  34 0
 6-311+G(2d,p)
 ****
 36  38  39  40  41 0
 6-311+G(2d,p)
 ****
 1  2  3  4  5  16  17  18  19  20  21  22  23  24  25 0
 3-21G
 ****
 27  28  30  31  32  35  37  42  43  44  45  46  47 0
 3-21G
 ****
 48  49 0
 3-21G
 ****


