%nproc=1
%NoSave
%Mem=1900MB
#P OB98/GEN NMR

erre ene a

0 1
  C     -268.870    -881.746    -889.910
  O     -268.725    -883.091    -889.490
  H     -268.245    -881.105    -889.270
  H     -269.906    -881.422    -889.820
  H     -268.531    -881.644    -890.950
  P     -269.533    -884.192    -890.340
  C     -267.757    -886.076    -890.750
  O     -268.441    -884.928    -891.260
  C     -266.841    -886.679    -891.810
  O     -267.671    -887.211    -892.900
  C     -265.885    -885.668    -892.440
  O     -264.672    -886.363    -892.840
  C     -266.643    -885.227    -893.690
  O     -265.800    -884.589    -894.590
  C     -267.213    -886.574    -894.120
  N     -268.376    -886.248    -899.080
  C     -267.205    -886.465    -898.440
  N     -266.981    -886.578    -897.120
  C     -268.145    -886.410    -896.410
  C     -269.396    -886.164    -896.930
  C     -269.507    -886.069    -898.350
  N     -270.694    -885.835    -898.990
  N     -270.341    -886.072    -895.930
  C     -269.621    -886.217    -894.800
  N     -268.301    -886.438    -895.080
  O     -270.362    -883.306    -891.390
  O     -270.436    -885.095    -889.550
  H     -265.253    -883.900    -894.150
  H     -271.253    -883.112    -891.010
  H     -266.355    -886.615    -899.090
  H     -270.017    -886.192    -893.790
  H     -266.459    -887.241    -894.580
  H     -267.454    -884.515    -893.430
  H     -265.616    -884.822    -891.770
  H     -266.281    -887.532    -891.370
  H     -268.513    -886.825    -890.420
  H     -267.162    -885.773    -889.860
  H     -270.673    -885.774    -900.000
  H     -271.559    -885.677    -898.450
  P     -263.737    -887.017    -891.730
  C     -263.842    -889.534    -892.440
  O     -264.164    -888.557    -891.450
  O     -264.284    -886.296    -890.380
  O     -262.254    -886.786    -891.910
  H     -263.513    -885.985    -889.830
  H     -264.184    -890.495    -892.117
  H     -262.782    -889.562    -892.582
  H     -264.319    -889.277    -893.363

 6  7  8  9  10  11  12  13  14  15  25  28  32  33  34  35 0
 6-311+G(2d,p)
 ****
 36  37  40 0
 6-311+G(2d,p)
 ****
 1  2  3  4  5  16  17  18  19  20  21  22  23  24 0
 3-21G
 ****
 26  27  29  30  31  38  39 41  42  43  44  45  46  47  48 0
 3-21G
 ****


