%nproc=1
%NoSave
%Mem=1900MB
#P OB98/GEN NMR

erre ene a

0 1
  C     -512.783    -145.421    -621.737
  O     -512.900    -144.458    -622.788
  P     -511.548    -144.121    -623.599
  C     -511.416    -141.781    -622.470
  O     -510.744    -142.995    -622.774
  C     -510.595    -140.950    -621.473
  O     -509.176    -141.019    -621.732
  C     -510.957    -139.466    -621.500
  O     -512.146    -139.242    -620.749
  C     -509.724    -138.836    -620.849
  O     -509.805    -138.885    -619.404
  C     -508.596    -139.749    -621.348
  N     -505.942    -135.781    -623.118
  C     -506.721    -135.903    -621.969
  N     -506.776    -134.808    -621.175
  N     -507.378    -136.978    -621.641
  C     -507.223    -137.995    -622.528
  C     -506.463    -138.008    -623.678
  C     -505.742    -136.799    -624.031
  O     -505.030    -136.654    -625.016
  N     -506.511    -139.234    -624.292
  C     -507.404    -139.910    -623.583
  N     -507.811    -139.229    -622.462
  O     -512.082    -143.339    -624.902
  O     -510.761    -145.334    -623.969
  H     -509.002    -138.485    -619.029
  H     -511.961    -143.906    -625.687
  H     -505.475    -134.933    -623.318
  H     -507.746    -140.901    -623.821
  H     -507.865    -139.971    -620.551
  H     -509.615    -137.791    -621.125
  H     -506.297    -133.941    -621.350
  H     -511.062    -139.113    -622.534
  H     -507.335    -134.870    -620.317
  H     -510.776    -141.366    -620.468
  H     -512.404    -141.992    -622.052
  H     -511.580    -141.226    -623.401
  P     -513.508    -139.001    -621.575
  C     -513.802    -136.408    -621.608
  O     -513.373    -137.569    -622.302
  O     -514.596    -138.737    -620.413
  O     -513.922    -140.131    -622.460
  H     -515.400    -139.226    -620.617
  H     -513.197    -135.565    -621.954
  H     -513.670    -136.516    -620.524
  H     -514.839    -136.208    -621.830
  H     -513.737    -145.562    -621.274
  H     -512.082    -145.071    -621.009
  H     -512.442    -146.351    -622.142

 3  4  5  6  7  8  9  10  11  12  23  26  30  31 0
 6-311+G(2d,p)
 ****
 33  35  36  37  38 0
 6-311+G(2d,p)
 ****
 1  2  13  14  15  16  17  18  19  20  21  22  24  25 0
 3-21G
 ****
 27  28  29  32  34  39  40  41  42  43  44  45  46  47  48  49 0
 3-21G
 ****


