%nproc=1
%NoSave
%Mem=1900MB
#P OB98/GEN NMR

erre ene a

0 1
  C      -69.172     -21.849     198.827
  O      -70.516     -22.030     198.426
  H      -68.987     -20.780     198.957
  H      -68.494     -22.229     198.058
  H      -68.979     -22.354     199.778
  P      -71.094     -23.521     198.313
  C      -70.488     -23.920     195.836
  O      -70.232     -24.272     197.190
  C      -69.519     -24.658     194.915
  O      -68.156     -24.421     195.332
  C      -69.697     -26.172     194.920
  O      -70.824     -26.557     194.158
  C      -68.360     -26.620     194.350
  O      -68.350     -26.512     192.918
  C      -67.390     -25.600     194.988
  N      -66.690     -26.135     196.156
  C      -65.922     -27.278     195.949
  O      -65.843     -27.851     194.863
  N      -65.266     -27.761     197.051
  C      -65.391     -27.294     198.328
  O      -64.851     -27.821     199.297
  C      -66.233     -26.102     198.491
  C      -66.835     -25.584     197.416
  O      -72.573     -23.631     198.154
  O      -70.600     -24.218     199.669
  H      -68.548     -25.578     192.710
  H      -71.353     -24.301     200.285
  H      -64.716     -28.597     196.924
  H      -66.347     -25.693     199.486
  H      -67.464     -24.708     197.518
  H      -66.638     -25.281     194.255
  H      -68.132     -27.657     194.595
  H      -69.781     -26.536     195.950
  H      -69.634     -24.256     193.898
  H      -70.349     -22.840     195.721
  H      -71.526     -24.173     195.591
  P      -71.786     -27.721     194.692
  C      -70.834     -29.650     193.283
  O      -70.981     -29.105     194.590
  O      -73.156     -27.740     194.098
  O      -71.858     -27.463     196.271
  H      -72.783     -27.290     196.529
  H      -70.284     -30.566     193.338
  H      -70.307     -28.955     192.664
  H      -71.801     -29.838     192.864

 6  7  8  9  10  11  12  13  14  15  16  26  31  32  33  34  35 0
 6-311+G(2d,p)
 ****
 36  37 0
 6-311+G(2d,p)
 ****
 1  2  3  4  5  17  18  19  20  21  22  23  24  25 0
 3-21G
 ****
 27  28  29  30  38  39  40  41  42  43  44  45 0
 3-21G
 ****


