%nproc=1
%NoSave
%Mem=1900MB
#P OB98/GEN NMR

erre ene a

0 1
  C      -45.889      53.398      35.611
  O      -46.173      54.179      34.466
  H      -45.111      52.674      35.357
  H      -46.780      52.854      35.936
  H      -45.524      54.032      36.424
  P      -47.293      55.318      34.585
  C      -45.415      57.083      34.438
  O      -46.544      56.613      35.162
  C      -45.814      58.257      33.551
  O      -46.655      59.171      34.279
  C      -44.631      59.074      33.034
  O      -44.042      58.436      31.912
  C      -45.329      60.377      32.686
  O      -46.044      60.228      31.444
  C      -46.317      60.522      33.857
  N      -44.314      64.890      35.469
  C      -44.669      64.494      34.194
  N      -44.414      65.375      33.203
  N      -45.205      63.335      33.915
  C      -45.337      62.533      34.997
  C      -45.006      62.806      36.305
  C      -44.466      64.113      36.610
  O      -44.153      64.512      37.729
  N      -45.222      61.721      37.116
  C      -45.718      60.807      36.306
  N      -45.795      61.245      35.005
  O      -48.535      54.952      35.341
  O      -47.606      55.716      33.070
  H      -45.424      59.817      30.814
  H      -48.352      55.199      32.716
  H      -43.886      65.790      35.615
  H      -46.041      59.819      36.608
  H      -47.246      61.017      33.557
  H      -44.641      61.214      32.566
  H      -43.757      66.136      33.321
  H      -43.898      59.271      33.824
  H      -44.620      65.084      32.256
  H      -46.411      57.863      32.720
  H      -45.043      56.251      33.829
  H      -44.623      57.395      35.127
  P      -42.448      58.272      31.794
  C      -42.870      55.741      31.491
  O      -42.159      56.749      32.197
  O      -41.658      59.280      32.557
  O      -42.159      58.277      30.225
  H      -42.018      59.181      29.850
  H      -42.583      54.778      31.859
  H      -42.641      55.807      30.448
  H      -43.921      55.879      31.635

 6  7  8  9  10  11  12  13  14  15  26  29  33  34 0
 6-311+G(2d,p)
 ****
 36  38  39  40  41 0
 6-311+G(2d,p)
 ****
 1  2  3  4  5  16  17  18  19  20  21  22  23  24  25 0
 3-21G
 ****
 27  28  30  31  32  35  37  42  43  44  45  46  47 0
 3-21G
 ****
 48  49 0
 3-21G
 ****


