%nproc=1
%NoSave
%Mem=1900MB
#P OB98/GEN NMR

erre ene a

0 1
  C       86.408     -49.358     -16.955
  O       85.225     -48.799     -16.408
  P       84.547     -47.576     -17.197
  C       85.383     -45.816     -15.480
  O       85.385     -46.257     -16.830
  C       86.261     -44.574     -15.311
  O       87.628     -44.908     -15.686
  C       85.834     -43.369     -16.167
  O       86.122     -42.194     -15.400
  C       86.761     -43.484     -17.365
  O       86.860     -42.300     -18.136
  C       88.045     -43.937     -16.673
  N       91.703     -42.909     -20.094
  C       90.971     -42.106     -19.289
  N       90.019     -42.452     -18.397
  C       89.858     -43.786     -18.371
  C       90.516     -44.729     -19.143
  C       91.481     -44.243     -20.041
  N       92.220     -45.067     -20.869
  N       90.064     -46.001     -18.858
  C       89.147     -45.830     -17.928
  N       89.003     -44.514     -17.587
  O       83.168     -47.363     -16.415
  O       84.331     -47.809     -18.661
  H       87.399     -42.465     -18.934
  H       82.442     -47.145     -17.030
  H       91.178     -41.043     -19.373
  H       88.552     -46.618     -17.483
  H       88.537     -43.112     -16.143
  H       86.384     -44.270     -18.031
  H       84.771     -43.376     -16.424
  H       86.271     -44.299     -14.249
  H       85.784     -46.607     -14.838
  H       92.736     -44.611     -21.608
  H       91.903     -46.023     -20.968
  H       84.354     -45.615     -15.165
  P       85.044     -41.005     -15.368
  C       86.205     -40.169     -17.505
  O       84.973     -40.508     -16.896
  O       85.904     -39.834     -14.690
  O       83.757     -41.309     -14.684
  H       86.763     -39.717     -15.134
  H       86.022     -39.945     -18.560
  H       86.908     -41.004     -17.435
  H       86.626     -39.281     -17.024
  H       86.747     -50.158     -16.330
  H       87.165     -48.604     -17.012
  H       86.204     -49.734     -17.936

 3  4  5  6  7  8  9  10  11  12  22  25  29  30  31  32 0
 6-311+G(2d,p)
 ****
 33  36  37 0
 6-311+G(2d,p)
 ****
 1  2  13  14  15  16  17  18  19  20  21  23  24  26 0
 3-21G
 ****
 27  28  34  35  38  39  40  41  42  43  44  45  46  47  48 0
 3-21G
 ****


