%nproc=1
%NoSave
%Mem=1900MB
#P OB98/GEN NMR

erre ene a

0 1
  C     -150.779     113.106      11.495
  O     -149.532     112.886      10.829
  P     -149.545     112.972       9.228
  C     -149.799     111.319       7.240
  O     -149.796     111.497       8.651
  C     -149.061     110.031       6.871
  O     -147.649     110.125       7.155
  C     -149.547     108.813       7.646
  O     -150.798     108.362       7.155
  C     -148.389     107.847       7.416
  O     -148.488     107.243       6.116
  C     -147.175     108.789       7.458
  N     -142.824     107.658       9.902
  C     -143.193     107.529       8.609
  N     -144.372     107.852       8.037
  C     -145.216     108.368       8.946
  C     -144.979     108.564      10.297
  C     -143.716     108.178      10.777
  N     -143.346     108.296      12.098
  N     -146.086     109.114      10.910
  C     -146.982     109.226       9.951
  N     -146.499     108.799       8.743
  O     -148.017     113.270       8.861
  O     -150.457     114.026       8.691
  H     -147.757     106.597       6.039
  H     -147.921     114.190       8.552
  H     -142.442     107.110       7.944
  H     -147.988     109.607      10.080
  H     -146.424     108.531       6.702
  H     -148.353     107.038       8.152
  H     -149.630     109.052       8.714
  H     -149.190     109.862       5.794
  H     -149.322     112.171       6.750
  H     -142.451     107.923      12.374
  H     -144.032     108.602      12.773
  H     -150.836     111.295       6.891
  P     -151.978     108.133       8.216
  C     -152.238     106.564      10.233
  O     -151.464     106.887       9.092
  O     -153.110     107.475       7.303
  O     -152.378     109.345       8.986
  H     -152.748     106.779       6.723
  H     -151.800     105.685      10.714
  H     -153.266     106.336       9.941
  H     -152.226     107.396      10.941
  H     -150.638     113.022      12.552
  H     -151.490     112.375      11.171
  H     -151.141     114.085      11.260

 3  4  5  6  7  8  9  10  11  12  22  25  29  30  31  32 0
 6-311+G(2d,p)
 ****
 33  36  37 0
 6-311+G(2d,p)
 ****
 1  2  13  14  15  16  17  18  19  20  21  23  24  26 0
 3-21G
 ****
 27  28  34  35  38  39  40  41  42  43  44  45  46  47  48 0
 3-21G
 ****


