%nproc=1
%NoSave
%Mem=1900MB
#P OB98/GEN NMR

erre ene a

0 1
  C      -60.946     155.511    -686.632
  O      -59.905     154.787    -686.021
  H      -61.472     156.091    -685.867
  H      -61.663     154.821    -687.100
  H      -60.561     156.206    -687.382
  P      -58.851     154.012    -686.947
  C      -58.783     151.702    -688.096
  O      -59.595     152.709    -687.511
  C      -59.526     151.009    -689.237
  O      -60.619     150.210    -688.713
  C      -60.170     151.977    -690.228
  O      -59.199     152.534    -691.095
  C      -61.188     151.057    -690.903
  O      -60.548     150.246    -691.906
  C      -61.657     150.197    -689.713
  N      -62.939     150.656    -689.138
  C      -64.090     150.235    -689.810
  O      -64.071     149.551    -690.823
  N      -65.281     150.644    -689.239
  C      -65.413     151.484    -688.171
  O      -66.497     151.861    -687.734
  C      -64.151     151.919    -687.547
  C      -62.995     151.496    -688.049
  O      -57.508     153.755    -686.340
  O      -58.727     154.946    -688.247
  H      -59.908     149.686    -691.434
  H      -57.918     155.489    -688.196
  H      -66.127     150.361    -689.706
  H      -64.221     152.593    -686.691
  H      -62.063     151.818    -687.596
  H      -61.789     149.159    -690.016
  H      -61.983     151.611    -691.411
  H      -60.714     152.766    -689.693
  H      -58.834     150.339    -689.752
  H      -58.535     150.950    -687.329
  H      -57.847     152.153    -688.460
  P      -59.394     154.001    -691.715
  C      -61.224     155.242    -692.995
  O      -60.725     153.975    -692.612
  O      -58.180     154.563    -692.404
  O      -59.806     154.903    -690.450
  H      -59.069     155.470    -690.180
  H      -62.107     155.114    -693.586
  H      -60.483     155.759    -693.568
  H      -61.460     155.812    -692.120

 6  7  8  9  10  11  12  13  14  15  16  26  31  32  33  34  35 0
 6-311+G(2d,p)
 ****
 36  37 0
 6-311+G(2d,p)
 ****
 1  2  3  4  5  17  18  19  20  21  22  23  24  25 0
 3-21G
 ****
 27  28  29  30  38  39  40  41  42  43  44  45 0
 3-21G
 ****


