%nproc=1
%NoSave
%Mem=1900MB
#P OB98/GEN NMR

erre ene a

0 1
  C       50.831    -860.324    -462.542
  O       49.728    -861.234    -462.650
  P       48.406    -860.885    -463.486
  C       48.129    -860.582    -466.039
  O       48.554    -861.441    -464.985
  C       48.031    -861.331    -467.376
  O       49.297    -861.919    -467.728
  C       47.021    -862.482    -467.390
  O       45.696    -862.002    -467.469
  C       47.497    -863.269    -468.609
  O       46.987    -862.691    -469.833
  C       49.031    -863.091    -468.528
  N       49.699    -864.266    -467.984
  C       50.086    -865.245    -468.916
  O       49.819    -865.117    -470.109
  N       50.761    -866.356    -468.465
  C       50.952    -866.507    -467.185
  N       51.618    -867.629    -466.793
  C       50.474    -865.552    -466.160
  C       49.864    -864.464    -466.639
  O       47.993    -859.446    -463.415
  O       47.258    -861.824    -462.865
  H       47.511    -861.894    -470.003
  H       46.401    -861.365    -462.933
  H       50.630    -865.737    -465.111
  H       49.494    -863.712    -465.956
  H       49.445    -862.873    -469.519
  H       47.180    -864.316    -468.580
  H       47.149    -863.091    -466.492
  H       47.780    -860.588    -468.154
  H       51.944    -868.261    -467.513
  H       48.861    -859.765    -466.138
  H       51.823    -867.848    -465.823
  H       47.157    -860.148    -465.769
  P       44.735    -862.086    -466.196
  C       44.274    -860.699    -464.075
  O       45.037    -860.817    -465.273
  O       44.719    -863.402    -465.485
  O       43.274    -861.748    -466.791
  H       42.606    -862.234    -466.272
  H       44.824    -860.085    -463.367
  H       44.119    -861.692    -463.625
  H       43.318    -860.242    -464.300
  H       51.599    -860.764    -461.940
  H       50.499    -859.414    -462.088
  H       51.218    -860.115    -463.517

 3  4  5  6  7  8  9  10  11  12  13  23  27  28  29  30  32 0
 6-311+G(2d,p)
 ****
 34  35 0
 6-311+G(2d,p)
 ****
 1  2  14  15  16  17  18  19  20  21  22  24  25  26 0
 3-21G
 ****
 31  33  36  37  38  39  40  41  42  43  44  45  46 0
 3-21G
 ****


