%nproc=1
%NoSave
%Mem=1900MB
#P OB98/GEN NMR

erre ene a

0 1
  C     -390.408     286.673     232.774
  O     -390.820     287.079     231.463
  P     -391.106     288.617     231.097
  C     -389.519     288.745     229.073
  O     -390.867     288.881     229.524
  C     -389.232     289.538     227.792
  O     -389.733     288.826     226.624
  C     -389.843     290.947     227.743
  O     -388.945     291.737     226.962
  C     -391.138     290.709     226.991
  O     -391.703     291.898     226.444
  C     -390.685     289.688     225.959
  N     -394.601     289.720     222.647
  C     -393.567     290.568     222.821
  N     -392.540     290.477     223.698
  C     -392.622     289.342     224.418
  C     -393.612     288.370     224.338
  C     -394.646     288.600     223.413
  N     -395.727     287.761     223.262
  N     -393.381     287.366     225.261
  C     -392.280     287.723     225.884
  N     -391.777     288.913     225.403
  O     -390.406     289.595     231.992
  O     -392.695     288.775     231.258
  H     -392.431     291.636     225.846
  H     -392.888     289.591     231.758
  H     -393.563     291.448     222.177
  H     -391.807     287.179     226.700
  H     -390.161     290.179     225.122
  H     -391.884     290.280     227.683
  H     -389.990     291.388     228.736
  H     -388.138     289.585     227.674
  H     -389.315     287.684     228.905
  H     -396.464     288.054     222.625
  H     -395.850     286.987     223.902
  H     -388.844     289.084     229.874
  P     -387.697     292.510     227.628
  C     -386.203     292.008     225.602
  O     -386.776     293.024     226.415
  O     -386.973     291.739     228.684
  O     -388.324     293.862     228.209
  H     -387.728     294.238     228.878
  H     -385.364     291.549     226.126
  H     -385.850     292.462     224.673
  H     -386.946     291.236     225.353
  H     -390.275     285.611     232.793
  H     -391.157     286.952     233.486
  H     -389.484     287.153     233.022

 3  4  5  6  7  8  9  10  11  12  22  25  29  30  31  32 0
 6-311+G(2d,p)
 ****
 33  36  37 0
 6-311+G(2d,p)
 ****
 1  2  13  14  15  16  17  18  19  20  21  23  24  26 0
 3-21G
 ****
 27  28  34  35  38  39  40  41  42  43  44  45  46  47  48 0
 3-21G
 ****


