%nproc=1
%NoSave
%Mem=1900MB
#P OB98/GEN NMR

erre ene a

0 1
  C      344.087    -242.229    -100.508
  O      342.892    -242.500    -101.215
  H      344.865    -241.961    -101.228
  H      344.416    -243.105     -99.945
  H      343.936    -241.385     -99.830
  P      341.678    -243.181    -100.414
  C      341.352    -245.501     -99.336
  O      342.291    -244.526     -99.772
  C      341.988    -246.486     -98.354
  O      342.985    -247.294     -99.016
  C      342.728    -245.822     -97.204
  O      341.906    -245.121     -96.297
  C      343.594    -246.966     -96.690
  O      342.885    -247.834     -95.810
  C      343.936    -247.704     -98.005
  N      345.310    -247.468     -98.436
  C      346.302    -247.943     -97.587
  O      346.072    -248.512     -96.518
  N      347.588    -247.714     -97.987
  C      347.968    -247.031     -99.107
  O      349.144    -246.840     -99.404
  C      346.873    -246.518     -99.948
  C      345.611    -246.759     -99.580
  O      340.423    -243.404    -101.206
  O      341.478    -242.233     -99.140
  H      343.539    -248.443     -95.424
  H      340.610    -242.403     -98.702
  H      348.327    -248.063     -97.394
  H      347.139    -245.960    -100.836
  H      344.786    -246.392    -100.185
  H      343.802    -248.787     -97.880
  H      344.473    -246.605     -96.149
  H      343.417    -245.077     -97.621
  H      341.203    -247.156     -97.989
  H      341.001    -246.049    -100.219
  H      340.494    -245.002     -98.868
  P      342.467    -244.247     -95.089
  C      342.161    -244.329     -92.494
  O      342.214    -245.045     -93.722
  O      342.150    -242.786     -95.115
  O      344.062    -244.405     -95.283
  H      344.472    -243.558     -95.001
  H      341.986    -245.013     -91.690
  H      341.367    -243.613     -92.533
  H      343.090    -243.823     -92.336

 6  7  8  9  10  11  12  13  14  15  16  26  31  32  33  34  35 0
 6-311+G(2d,p)
 ****
 36  37 0
 6-311+G(2d,p)
 ****
 1  2  3  4  5  17  18  19  20  21  22  23  24  25 0
 3-21G
 ****
 27  28  29  30  38  39  40  41  42  43  44  45 0
 3-21G
 ****


