%nproc=1
%NoSave
%Mem=1900MB
#P OB98/GEN NMR

erre ene a

0 1
  C      -86.082     155.099     -22.414
  O      -85.559     155.734     -23.565
  H      -87.099     155.461     -22.246
  H      -85.472     155.347     -21.541
  H      -86.109     154.016     -22.556
  P      -84.071     155.321     -23.999
  C      -83.645     157.872     -24.282
  O      -83.477     156.566     -24.819
  C      -83.239     158.911     -25.319
  O      -81.850     158.720     -25.683
  C      -84.013     158.819     -26.625
  O      -85.305     159.397     -26.529
  C      -83.083     159.557     -27.575
  O      -83.275     160.977     -27.497
  C      -81.698     159.178     -27.046
  N      -77.917     158.194     -30.335
  C      -78.236     159.301     -29.632
  N      -79.255     159.481     -28.766
  C      -79.965     158.345     -28.633
  C      -79.758     157.139     -29.278
  C      -78.673     157.081     -30.165
  N      -78.360     155.963     -30.901
  N      -80.722     156.221     -28.913
  C      -81.493     156.856     -28.056
  N      -81.074     158.143     -27.850
  O      -84.316     154.206     -25.122
  O      -83.206     154.816     -22.892
  H      -82.538     161.379     -27.995
  H      -84.200     153.321     -24.730
  H      -77.596     160.164     -29.798
  H      -82.363     156.437     -27.564
  H      -81.009     160.033     -27.029
  H      -83.260     159.255     -28.606
  H      -84.086     157.770     -26.948
  H      -83.340     159.911     -24.874
  H      -83.017     157.984     -23.391
  H      -84.693     158.006     -23.994
  H      -77.610     156.013     -31.571
  H      -78.985     155.165     -30.870
  P      -86.571     158.434     -26.705
  C      -87.891     159.805     -28.482
  O      -87.809     159.348     -27.141
  O      -86.929     157.996     -25.204
  O      -86.333     157.250     -27.583
  H      -87.248     157.073     -25.194
  H      -88.773     160.399     -28.603
  H      -87.933     158.965     -29.143
  H      -87.029     160.396     -28.711

 6  7  8  9  10  11  12  13  14  15  25  28  32  33  34  35 0
 6-311+G(2d,p)
 ****
 36  37  40 0
 6-311+G(2d,p)
 ****
 1  2  3  4  5  16  17  18  19  20  21  22  23  24 0
 3-21G
 ****
 26  27  29  30  31  38  39 41  42  43  44  45  46  47  48 0
 3-21G
 ****


