%nproc=1
%NoSave
%Mem=1900MB
#P OB98/GEN NMR

erre ene a

0 1
  C      139.523    -226.682    -333.850
  O      138.962    -226.457    -335.129
  H      139.374    -227.731    -333.584
  H      139.018    -226.054    -333.109
  H      140.595    -226.464    -333.857
  P      139.228    -225.015    -335.789
  C      140.727    -225.677    -337.841
  O      140.643    -225.136    -336.537
  C      141.922    -225.095    -338.595
  O      141.661    -223.693    -338.873
  C      143.242    -225.179    -337.819
  O      144.301    -225.410    -338.748
  C      143.385    -223.785    -337.228
  O      144.742    -223.474    -336.915
  C      142.753    -222.925    -338.330
  N      142.304    -221.625    -337.840
  C      143.296    -220.737    -337.402
  O      144.484    -221.073    -337.431
  N      142.926    -219.517    -336.905
  C      141.666    -219.225    -336.788
  N      141.358    -218.008    -336.265
  C      140.581    -220.144    -337.200
  C      140.967    -221.310    -337.717
  O      139.555    -224.121    -334.502
  O      138.105    -224.502    -336.630
  H      144.755    -222.691    -336.326
  H      140.156    -224.552    -333.876
  H      139.547    -219.860    -337.070
  H      140.244    -222.040    -338.049
  H      143.473    -222.752    -339.145
  H      142.799    -223.706    -336.305
  H      143.229    -225.964    -337.057
  H      142.008    -225.603    -339.564
  H      142.129    -217.418    -335.976
  H      139.809    -225.469    -338.402
  H      140.416    -217.699    -336.077
  H      140.825    -226.765    -337.753
  P      145.457    -226.456    -338.382
  C      145.442    -227.661    -340.677
  O      145.268    -227.782    -339.266
  O      145.683    -226.688    -336.927
  O      146.756    -225.786    -339.048
  H      147.502    -225.907    -338.424
  H      145.288    -228.614    -341.138
  H      146.434    -227.320    -340.886
  H      144.734    -226.958    -341.065

 6  7  8  9  10  11  12  13  14  15  16  26  30  31  32  33  35 0
 6-311+G(2d,p)
 ****
 37  38 0
 6-311+G(2d,p)
 ****
 1  2  3  4  5  17  18  19  20  21  22  23  24  25 0
 3-21G
 ****
 27  28  29  34  36  39  40  41  42  43  44  45  46 0
 3-21G
 ****


