%nproc=1
%NoSave
%Mem=1900MB
#P OB98/GEN NMR

erre ene a

0 1
  C       38.568    -195.595     -42.648
  O       38.989    -195.273     -41.335
  H       39.450    -195.671     -43.289
  H       37.921    -194.804     -43.034
  H       38.038    -196.549     -42.656
  P       37.849    -195.201     -40.208
  C       35.570    -196.163     -40.989
  O       36.865    -196.445     -40.477
  C       34.707    -197.425     -40.996
  O       35.329    -198.417     -41.866
  C       34.527    -198.075     -39.613
  O       33.208    -198.634     -39.554
  C       35.526    -199.223     -39.645
  O       35.213    -200.248     -38.705
  C       35.405    -199.645     -41.111
  N       36.802    -204.380     -42.084
  C       35.573    -203.864     -41.721
  N       34.556    -204.746     -41.593
  N       35.358    -202.594     -41.498
  C       36.455    -201.823     -41.692
  C       37.728    -202.212     -42.047
  C       37.957    -203.626     -42.262
  O       39.029    -204.146     -42.568
  N       38.573    -201.131     -42.113
  C       37.812    -200.096     -41.802
  N       36.521    -200.464     -41.537
  O       36.987    -193.931     -40.662
  O       38.344    -195.071     -38.806
  H       35.320    -199.874     -37.808
  H       37.302    -193.127     -40.204
  H       36.915    -205.369     -42.229
  H       38.145    -199.065     -41.748
  H       34.493    -200.224     -41.304
  H       36.535    -198.853     -39.426
  H       34.635    -205.729     -41.796
  H       34.680    -197.395     -38.769
  H       33.636    -204.379     -41.371
  H       33.737    -197.182     -41.442
  H       35.667    -195.789     -42.015
  H       35.099    -195.394     -40.370
  P       32.096    -197.851     -38.707
  C       31.171    -195.419     -38.717
  O       31.779    -196.467     -39.457
  O       32.909    -197.372     -37.409
  O       30.907    -198.679     -38.341
  H       32.300    -197.284     -36.653
  H       31.026    -194.571     -39.353
  H       31.804    -195.147     -37.898
  H       30.225    -195.749     -38.342

 6  7  8  9  10  11  12  13  14  15  26  29  33  34 0
 6-311+G(2d,p)
 ****
 36  38  39  40  41 0
 6-311+G(2d,p)
 ****
 1  2  3  4  5  16  17  18  19  20  21  22  23  24  25 0
 3-21G
 ****
 27  28  30  31  32  35  37  42  43  44  45  46  47 0
 3-21G
 ****
 48  49 0
 3-21G
 ****


