%nproc=1
%NoSave
%Mem=1900MB
#P OB98/GEN NMR

erre ene a

0 1
  C      163.560    -871.752    -573.330
  O      163.485    -873.130    -573.583
  P      164.038    -874.191    -572.500
  C      161.653    -875.119    -572.168
  O      163.011    -875.413    -572.529
  C      160.707    -876.161    -572.742
  O      160.549    -876.016    -574.155
  C      161.170    -877.604    -572.532
  O      160.954    -878.024    -571.198
  C      160.337    -878.342    -573.584
  O      159.024    -878.609    -573.076
  C      160.262    -877.296    -574.737
  N      161.192    -877.624    -575.800
  C      160.745    -877.374    -577.122
  O      159.578    -876.963    -577.294
  N      161.549    -877.669    -578.173
  C      162.735    -878.170    -577.970
  N      163.502    -878.446    -579.047
  C      163.269    -878.470    -576.599
  C      162.437    -878.184    -575.591
  O      164.344    -873.617    -571.166
  O      165.341    -874.811    -573.246
  H      158.623    -877.736    -572.843
  H      166.096    -874.149    -573.239
  H      164.232    -878.901    -576.471
  H      162.719    -878.351    -574.569
  H      159.242    -877.246    -575.129
  H      160.781    -879.289    -573.874
  H      162.231    -877.678    -572.794
  H      159.716    -876.020    -572.268
  H      163.109    -878.253    -579.956
  H      161.404    -874.135    -572.597
  H      164.435    -878.865    -578.984
  H      161.573    -875.046    -571.079
  P      161.798    -879.236    -570.588
  C      163.758    -877.622    -570.101
  O      162.898    -878.594    -569.568
  O      162.342    -880.206    -571.590
  O      160.761    -879.946    -569.597
  H      160.828    -880.928    -569.734
  H      164.190    -877.062    -569.264
  H      163.203    -876.951    -570.765
  H      164.549    -878.113    -570.656
  H      163.147    -871.214    -574.158
  H      164.583    -871.469    -573.196
  H      163.007    -871.522    -572.443

 3  4  5  6  7  8  9  10  11  12  13  23  27  28  29  30  32 0
 6-311+G(2d,p)
 ****
 34  35 0
 6-311+G(2d,p)
 ****
 1  2  14  15  16  17  18  19  20  21  22  24  25  26 0
 3-21G
 ****
 31  33  36  37  38  39  40  41  42  43  44  45  46 0
 3-21G
 ****


