%nproc=1
%NoSave
%Mem=1900MB
#P OB98/GEN NMR

erre ene a

0 1
  C     -209.907    -169.470     441.472
  O     -209.189    -168.742     442.448
  H     -209.239    -169.688     440.632
  H     -210.758    -168.893     441.098
  H     -210.257    -170.419     441.891
  P     -210.016    -168.084     443.656
  C     -209.494    -169.781     445.534
  O     -209.218    -168.490     444.991
  C     -208.518    -170.126     446.658
  O     -207.179    -170.250     446.131
  C     -208.422    -169.059     447.738
  O     -209.582    -168.944     448.535
  C     -207.087    -169.375     448.394
  O     -207.173    -170.362     449.417
  C     -206.269    -169.928     447.202
  N     -205.228    -168.999     446.773
  C     -204.083    -168.962     447.561
  O     -203.934    -169.645     448.574
  N     -203.118    -168.075     447.168
  C     -203.206    -167.210     446.116
  O     -202.321    -166.410     445.842
  C     -204.454    -167.277     445.338
  C     -205.395    -168.152     445.695
  O     -211.477    -168.412     443.701
  O     -209.710    -166.521     443.517
  H     -206.264    -170.520     449.741
  H     -210.361    -165.985     444.030
  H     -202.275    -168.046     447.719
  H     -204.560    -166.599     444.498
  H     -206.323    -168.219     445.133
  H     -205.779    -170.871     447.484
  H     -206.645    -168.483     448.851
  H     -208.299    -168.087     447.244
  H     -208.805    -171.097     447.083
  H     -209.388    -170.511     444.725
  H     -210.528    -169.812     445.901
  P     -210.136    -167.547     449.080
  C     -211.870    -166.638     447.374
  O     -211.650    -167.372     448.571
  O     -209.209    -166.377     448.987
  O     -210.336    -167.876     450.647
  H     -210.139    -167.059     451.147
  H     -212.918    -166.606     447.163
  H     -211.357    -167.114     446.564
  H     -211.500    -165.641     447.494

 6  7  8  9  10  11  12  13  14  15  16  26  31  32  33  34  35 0
 6-311+G(2d,p)
 ****
 36  37 0
 6-311+G(2d,p)
 ****
 1  2  3  4  5  17  18  19  20  21  22  23  24  25 0
 3-21G
 ****
 27  28  29  30  38  39  40  41  42  43  44  45 0
 3-21G
 ****


