%nproc=1
%NoSave
%Mem=1900MB
#P OB98/GEN NMR

erre ene a

0 1
  C     1320.482    -196.812    -237.262
  O     1319.519    -197.138    -236.279
  H     1321.085    -195.957    -236.935
  H     1321.139    -197.678    -237.413
  H     1319.982    -196.578    -238.208
  P     1318.521    -195.966    -235.838
  C     1318.134    -197.005    -233.493
  O     1318.601    -195.884    -234.234
  C     1318.375    -196.777    -232.000
  O     1319.792    -196.718    -231.726
  C     1317.802    -195.476    -231.449
  O     1316.401    -195.561    -231.214
  C     1318.587    -195.348    -230.149
  O     1317.981    -196.188    -229.132
  C     1319.962    -195.905    -230.536
  N     1322.428    -191.777    -228.694
  C     1321.496    -192.589    -228.153
  N     1320.877    -193.651    -228.693
  C     1321.322    -193.877    -229.945
  C     1322.271    -193.147    -230.640
  C     1322.832    -192.039    -229.965
  N     1323.776    -191.220    -230.536
  N     1322.493    -193.671    -231.891
  C     1321.679    -194.701    -231.964
  N     1320.948    -194.875    -230.810
  O     1317.069    -196.591    -236.104
  O     1318.703    -194.665    -236.553
  H     1317.102    -195.820    -228.950
  H     1316.472    -195.878    -236.409
  H     1321.205    -192.350    -227.123
  H     1321.599    -195.371    -232.815
  H     1320.362    -196.556    -229.756
  H     1318.601    -194.331    -229.753
  H     1318.049    -194.624    -232.103
  H     1317.961    -197.640    -231.462
  H     1318.673    -197.906    -233.806
  H     1324.282    -190.567    -229.946
  H     1324.084    -191.418    -231.486
  H     1317.067    -197.137    -233.682
  P     1315.484    -194.364    -231.786
  C     1313.695    -195.536    -230.305
  O     1314.204    -194.317    -230.806
  O     1314.882    -194.990    -233.137
  O     1316.196    -193.086    -232.034
  H     1314.642    -194.275    -233.754
  H     1312.853    -195.339    -229.675
  H     1314.455    -196.034    -229.739
  H     1313.392    -196.158    -231.121

 6  7  8  9  10  11  12  13  14  15  25  28  32  33  34  35 0
 6-311+G(2d,p)
 ****
 36  39  40 0
 6-311+G(2d,p)
 ****
 1  2  3  4  5  16  17  18  19  20  21  22  23  24 0
 3-21G
 ****
 26  27  29  30  31  37  38  41  42  43  44  45  46  47  48 0
 3-21G
 ****


