%nproc=1
%NoSave
%Mem=1900MB
#P OB98/GEN NMR

erre ene a

0 1
  C      293.086     442.912     526.786
  O      292.185     444.008     526.742
  P      292.805     445.464     526.459
  C      292.306     445.438     523.911
  O      293.298     445.429     524.930
  C      292.703     446.382     522.786
  O      292.686     447.739     523.258
  C      294.104     446.159     522.238
  O      294.148     445.086     521.312
  C      294.366     447.493     521.549
  O      293.753     447.490     520.246
  C      293.651     448.489     522.479
  N      297.363     451.908     522.870
  C      296.678     451.471     521.753
  N      297.011     452.048     520.579
  N      295.749     450.549     521.790
  C      295.495     450.095     523.034
  C      296.109     450.445     524.219
  C      297.167     451.429     524.160
  O      297.857     451.808     525.104
  N      295.565     449.774     525.283
  C      294.605     449.043     524.754
  N      294.539     449.183     523.389
  O      294.173     445.445     527.287
  O      291.934     446.610     526.843
  H      294.182     446.783     519.725
  H      294.433     446.356     527.518
  H      298.056     452.631     522.793
  H      293.936     448.407     525.319
  H      293.089     449.236     521.902
  H      295.431     447.697     521.399
  H      297.621     452.850     520.508
  H      294.827     446.022     523.049
  H      296.492     451.768     519.754
  H      291.959     446.290     521.982
  H      291.353     445.772     524.335
  H      292.177     444.414     523.533
  P      295.532     444.271     521.221
  C      295.791     443.776     523.761
  O      296.247     444.507     522.639
  O      296.405     445.138     520.199
  O      295.386     442.854     520.780
  H      297.069     444.573     519.758
  H      295.490     442.760     523.483
  H      294.941     444.294     524.212
  H      296.601     443.711     524.492
  H      292.543     442.011     526.981
  H      293.803     443.071     527.564
  H      293.591     442.828     525.847

 3  4  5  6  7  8  9  10  11  12  23  26  30  31  33  0
 6-311+G(2d,p)
 ****
 35  36  37  38 0
 6-311+G(2d,p)
 ****
 1  2  13  14  15  16  17  18  19  20  21  22  24  25  27  28  29 0
 3-21G
 ****
 32  34  39  40  41  42  43  44  45  46  47  48  49 0
 3-21G
 ****


