%nproc=1
%NoSave
%Mem=1900MB
#P OB98/GEN NMR

erre ene a

0 1
  C       70.187     -19.479     -32.529
  O       69.817     -18.118     -32.428
  H       70.618     -19.651     -33.519
  H       69.314     -20.126     -32.412
  H       70.938     -19.726     -31.774
  P       69.084     -17.624     -31.093
  C       67.809     -16.303     -32.916
  O       68.107     -16.431     -31.530
  C       67.560     -14.841     -33.279
  O       67.331     -14.708     -34.696
  C       66.338     -14.231     -32.602
  O       66.608     -13.951     -31.244
  C       66.107     -13.017     -33.486
  O       67.023     -11.961     -33.162
  C       66.419     -13.600     -34.887
  N       65.231     -14.027     -35.618
  C       64.711     -13.108     -36.537
  O       65.241     -12.008     -36.682
  N       63.591     -13.460     -37.250
  C       63.065     -14.633     -37.097
  N       61.961     -14.920     -37.837
  C       63.602     -15.642     -36.165
  C       64.667     -15.273     -35.457
  O       69.973     -17.301     -29.932
  O       68.070     -18.813     -30.747
  H       66.838     -11.237     -33.793
  H       68.477     -19.436     -30.117
  H       63.137     -16.613     -36.076
  H       65.125     -15.956     -34.749
  H       66.947     -12.859     -35.500
  H       65.101     -12.612     -33.379
  H       65.476     -14.900     -32.701
  H       68.468     -14.273     -33.037
  H       61.640     -14.202     -38.478
  H       66.910     -16.897     -33.108
  H       61.569     -15.846     -37.920
  H       68.625     -16.708     -33.525
  P       65.487     -14.124     -30.111
  C       65.296     -11.562     -30.208
  O       65.394     -12.702     -29.370
  O       65.672     -15.294     -29.207
  O       64.119     -14.169     -30.940
  H       63.999     -15.058     -31.359
  H       65.241     -10.680     -29.605
  H       64.416     -11.637     -30.811
  H       66.158     -11.509     -30.840

 6  7  8  9  10  11  12  13  14  15  16  26  30  31  32  33  35 0
 6-311+G(2d,p)
 ****
 37  38 0
 6-311+G(2d,p)
 ****
 1  2  3  4  5  17  18  19  20  21  22  23  24  25 0
 3-21G
 ****
 27  28  29  34  36  39  40  41  42  43  44  45  46 0
 3-21G
 ****


