%nproc=1
%NoSave
%Mem=1900MB
#P OB98/GEN NMR

erre ene a

0 1
  C      287.449     222.427    -382.084
  O      288.809     222.824    -382.026
  P      289.562     222.764    -380.611
  C      288.251     224.781    -379.619
  O      288.582     223.406    -379.512
  C      289.502     225.646    -379.458
  O      289.137     227.055    -379.581
  C      290.218     225.476    -378.108
  O      291.626     225.634    -378.335
  C      289.691     226.653    -377.310
  O      290.511     226.986    -376.195
  C      289.645     227.727    -378.408
  N      288.822     228.878    -378.045
  C      289.237     229.646    -376.963
  O      290.250     229.411    -376.302
  N      288.408     230.681    -376.611
  C      287.191     230.955    -377.163
  O      286.445     231.827    -376.726
  C      286.801     230.111    -378.302
  C      287.616     229.128    -378.685
  O      290.722     223.855    -380.772
  O      290.103     221.420    -380.248
  H      291.351     227.335    -376.541
  H      291.573     223.419    -380.972
  H      288.700     231.253    -375.835
  H      285.851     230.316    -378.776
  H      287.348     228.476    -379.512
  H      290.660     228.063    -378.648
  H      288.689     226.423    -376.934
  H      290.016     224.511    -377.624
  H      290.195     225.417    -380.285
  H      287.537     225.041    -378.831
  H      287.770     224.972    -380.582
  P      292.639     224.794    -377.412
  C      293.573     227.015    -376.394
  O      293.017     225.737    -376.173
  O      293.955     224.811    -378.324
  O      292.151     223.417    -377.082
  H      294.126     225.682    -378.720
  H      293.174     227.479    -377.304
  H      294.661     226.929    -376.488
  H      293.343     227.659    -375.540
  H      287.092     222.523    -383.088
  H      286.868     223.051    -381.438
  H      287.361     221.408    -381.770

 3  4  5  6  7  8  9  10  11  12  13  23  28  29  30  31  32 0
 6-311+G(2d,p)
 ****
 33  34 0
 6-311+G(2d,p)
 ****
 1  2  14  15  16  17  18  19  20  21  22  24  25  26 0
 3-21G
 ****
 27  35  36  37  38  39  40  41  42  43  44  45 0
 3-21G
 ****


