%nproc=1
%NoSave
%Mem=1900MB
#P OB98/GEN NMR

erre ene a

0 1
  C      283.789    -197.299       3.906
  O      283.862    -195.967       4.377
  P      282.539    -195.216       4.871
  C      283.366    -194.328       7.174
  O      283.006    -194.029       5.841
  C      283.736    -193.056       7.947
  O      285.041    -192.623       7.494
  C      282.801    -191.872       7.717
  O      282.993    -190.930       8.772
  C      283.335    -191.301       6.423
  O      282.936    -189.947       6.226
  C      284.862    -191.530       6.561
  N      285.479    -191.858       5.262
  C      285.491    -190.853       4.300
  O      285.088    -189.712       4.517
  N      285.906    -191.227       3.051
  C      286.253    -192.493       2.681
  O      286.321    -192.871       1.518
  C      286.448    -193.446       3.786
  C      286.033    -193.099       5.006
  O      281.875    -196.282       5.864
  O      281.602    -194.812       3.785
  H      283.325    -189.658       5.366
  H      281.192    -196.797       5.395
  H      285.779    -190.537       2.321
  H      286.866    -194.415       3.555
  H      286.116    -193.800       5.831
  H      285.365    -190.641       6.959
  H      282.941    -191.887       5.583
  H      281.743    -192.143       7.638
  H      283.810    -193.288       9.016
  H      284.202    -195.034       7.172
  H      282.538    -194.830       7.687
  P      281.800    -190.730       9.828
  C      283.424    -190.503      11.804
  O      282.410    -189.880      11.041
  O      281.057    -191.966      10.216
  O      280.845    -189.669       9.095
  H      279.956    -189.695       9.496
  H      284.084    -189.730      12.207
  H      284.013    -191.193      11.196
  H      282.966    -191.047      12.634
  H      284.766    -197.631       3.622
  H      283.137    -197.342       3.059
  H      283.409    -197.931       4.681

 3  4  5  6  7  8  9  10  11  12  13  23  28  29  30  31  32 0
 6-311+G(2d,p)
 ****
 33  34 0
 6-311+G(2d,p)
 ****
 1  2  14  15  16  17  18  19  20  21  22  24  25  26  27 0
 3-21G
 ****
 35  36  37  38  39  40  41  42  43  44  45 0
 3-21G
 ****


