%nproc=1
%NoSave
%Mem=1900MB
#P OB98/GEN NMR

erre ene a

0 1
  C      259.922    -177.290      91.134
  O      260.255    -178.542      91.698
  H      260.676    -177.032      90.386
  H      259.909    -176.510      91.899
  H      258.948    -177.347      90.643
  P      259.399    -179.083      92.939
  C      259.801    -181.627      92.973
  O      260.181    -180.365      93.507
  C      260.615    -181.951      91.720
  O      262.004    -182.140      92.106
  C      260.147    -183.217      90.995
  O      260.274    -183.003      89.587
  C      261.141    -184.257      91.466
  O      261.239    -185.335      90.556
  C      262.421    -183.433      91.635
  N      263.348    -184.081      92.563
  C      264.700    -183.749      92.429
  O      265.058    -182.937      91.574
  N      265.623    -184.387      93.216
  C      265.239    -185.319      94.029
  N      266.210    -185.940      94.751
  C      263.828    -185.724      94.184
  C      262.944    -185.070      93.431
  O      257.944    -179.299      92.691
  O      259.642    -177.979      94.074
  H      261.864    -186.004      90.910
  H      258.955    -177.289      94.021
  H      263.560    -186.513      94.871
  H      261.887    -185.307      93.470
  H      262.927    -183.296      90.672
  H      260.821    -184.662      92.435
  H      259.116    -183.495      91.239
  H      260.588    -181.082      91.052
  H      267.166    -185.646      94.593
  H      258.738    -181.577      92.717
  H      266.040    -186.707      95.383
  H      259.946    -182.407      93.727
  P      258.971    -182.831      88.666
  C      260.070    -181.346      86.895
  O      259.432    -182.595      87.144
  O      257.973    -181.842      89.171
  O      258.333    -184.303      88.629
  H      257.365    -184.231      88.528
  H      260.338    -181.282      85.861
  H      260.951    -181.269      87.497
  H      259.400    -180.548      87.139

 6  7  8  9  10  11  12  13  14  15  16  26  30  31  32  33  35 0
 6-311+G(2d,p)
 ****
 37  38 0
 6-311+G(2d,p)
 ****
 1  2  3  4  5  17  18  19  20  21  22  23  24  25 0
 3-21G
 ****
 27  28  29  34  36  39  40  41  42  43  44  45  46 0
 3-21G
 ****


