%nproc=1
%NoSave
%Mem=1900MB
#P OB98/GEN NMR

erre ene a

0 1
  C     -236.523    -343.768    -447.181
  O     -235.739    -344.914    -446.864
  P     -235.434    -345.954    -448.050
  C     -236.264    -348.021    -446.718
  O     -236.462    -347.169    -447.843
  C     -237.605    -348.490    -446.160
  O     -238.506    -347.375    -446.011
  C     -238.343    -349.494    -447.034
  O     -237.866    -350.821    -446.862
  C     -239.758    -349.366    -446.503
  O     -239.883    -350.110    -445.274
  C     -239.857    -347.859    -446.214
  N     -244.227    -345.799    -447.898
  C     -243.945    -346.547    -446.815
  N     -242.756    -347.070    -446.436
  C     -241.802    -346.785    -447.343
  C     -241.956    -346.066    -448.519
  C     -243.235    -345.543    -448.785
  N     -243.518    -344.755    -449.884
  N     -240.753    -345.979    -449.192
  C     -239.895    -346.624    -448.436
  N     -240.482    -347.122    -447.299
  O     -234.021    -346.586    -447.622
  O     -235.388    -345.353    -449.417
  H     -240.740    -349.860    -444.870
  H     -233.561    -346.939    -448.405
  H     -244.780    -346.745    -446.144
  H     -238.844    -346.758    -448.666
  H     -240.423    -347.644    -445.300
  H     -240.514    -349.757    -447.192
  H     -238.324    -349.190    -448.094
  H     -237.425    -348.917    -445.161
  H     -235.723    -347.475    -445.939
  H     -244.397    -344.273    -449.910
  H     -242.734    -344.405    -450.433
  H     -235.654    -348.884    -447.030
  P     -237.165    -351.513    -448.131
  C     -239.106    -353.246    -448.030
  O     -238.324    -352.380    -448.829
  O     -236.212    -352.612    -447.467
  O     -236.419    -350.571    -449.017
  H     -235.459    -352.811    -448.052
  H     -240.014    -353.504    -448.580
  H     -239.391    -352.766    -447.088
  H     -238.547    -354.167    -447.819
  H     -236.647    -343.167    -446.305
  H     -237.482    -344.080    -447.538
  H     -236.029    -343.196    -447.939

 3  4  5  6  7  8  9  10  11  12  22  25  29  30  31  32 0
 6-311+G(2d,p)
 ****
 33  36  37 0
 6-311+G(2d,p)
 ****
 1  2  13  14  15  16  17  18  19  20  21  23  24  26 0
 3-21G
 ****
 27  28  34  35  38  39  40  41  42  43  44  45  46  47  48 0
 3-21G
 ****


