%nproc=1
%NoSave
%Mem=1900MB
#P OB98/GEN NMR

erre ene a

0 1
  C       80.042     -98.743      33.110
  O       79.983     -98.433      31.724
  P       81.017     -97.341      31.160
  C       80.062     -94.965      30.719
  O       80.476     -95.924      31.686
  C       78.587     -95.153      30.375
  O       77.806     -95.256      31.582
  C       77.974     -94.008      29.583
  O       78.252     -94.105      28.196
  C       76.492     -94.243      29.844
  O       76.008     -95.300      28.994
  C       76.493     -94.699      31.306
  N       72.881     -92.430      34.124
  C       72.823     -93.444      33.236
  N       73.828     -93.984      32.516
  C       74.984     -93.344      32.760
  C       75.187     -92.270      33.610
  C       74.070     -91.813      34.326
  N       74.137     -90.799      35.254
  N       76.507     -91.881      33.594
  C       77.098     -92.710      32.757
  N       76.220     -93.620      32.234
  O       80.686     -97.306      29.596
  O       82.454     -97.636      31.424
  H       75.032     -95.252      29.011
  H       81.458     -96.973      29.098
  H       71.841     -93.887      33.089
  H       78.150     -92.695      32.508
  H       75.759     -95.491      31.497
  H       75.878     -93.361      29.635
  H       78.267     -93.036      29.995
  H       78.487     -96.099      29.826
  H       80.658     -95.094      29.810
  H       73.339     -90.656      35.854
  H       75.054     -90.480      35.546
  H       80.238     -93.961      31.114
  P       78.263     -92.731      27.363
  C       76.073     -91.928      26.218
  O       76.760     -92.186      27.428
  O       78.432     -93.226      25.852
  O       79.336     -91.779      27.772
  H       78.845     -92.528      25.309
  H       75.002     -91.869      26.428
  H       76.245     -92.725      25.490
  H       76.403     -90.973      25.801
  H       79.302     -99.480      33.343
  H       79.856     -97.858      33.682
  H       81.013     -99.125      33.349

 3  4  5  6  7  8  9  10  11  12  22  25  29  30  31  32 0
 6-311+G(2d,p)
 ****
 33  36  37 0
 6-311+G(2d,p)
 ****
 1  2  13  14  15  16  17  18  19  20  21  23  24  26 0
 3-21G
 ****
 27  28  34  35  38  39  40  41  42  43  44  45  46  47  48 0
 3-21G
 ****


