%nproc=1
%NoSave
%Mem=1900MB
#P OB98/GEN NMR

erre ene a

0 1
  C      -48.645      96.398    -167.749
  O      -49.235      96.623    -169.012
  H      -48.212      95.393    -167.741
  H      -49.400      96.457    -166.961
  H      -47.849      97.121    -167.555
  P      -49.798      98.085    -169.349
  C      -52.367      97.982    -169.160
  O      -51.142      98.276    -168.497
  C      -52.667      96.488    -169.056
  O      -52.818      96.109    -167.670
  C      -53.967      96.074    -169.735
  O      -53.831      96.036    -171.141
  C      -54.216      94.729    -169.073
  O      -53.452      93.693    -169.702
  C      -53.716      94.978    -167.633
  N      -54.822      95.212    -166.702
  C      -55.900      94.340    -166.800
  O      -55.953      93.411    -167.603
  N      -56.960      94.612    -165.977
  C      -57.094      95.722    -165.191
  O      -58.153      96.050    -164.666
  C      -55.900      96.571    -165.082
  C      -54.838      96.290    -165.839
  O      -49.914      98.413    -170.800
  O      -48.767      99.064    -168.610
  H      -48.151      99.437    -169.269
  H      -52.538      94.036    -169.765
  H      -57.766      94.008    -166.072
  H      -55.941      97.422    -164.411
  H      -53.956      96.922    -165.800
  H      -53.134      94.121    -167.275
  H      -55.270      94.446    -169.126
  H      -54.769      96.764    -169.450
  H      -51.816      95.935    -169.471
  H      -52.272      98.261    -170.214
  H      -53.169      98.572    -168.705
  P      -55.082      96.366    -172.083
  C      -55.854      94.181    -173.195
  O      -56.043      95.084    -172.110
  O      -54.739      96.919    -173.427
  O      -55.934      97.427    -171.236
  H      -56.138      98.193    -171.807
  H      -56.546      93.370    -173.109
  H      -54.854      93.801    -173.172
  H      -56.020      94.694    -174.119

 6  7  8  9  10  11  12  13  14  15  16  27  31  32  33  34  35 0
 6-311+G(2d,p)
 ****
 36  37 0
 6-311+G(2d,p)
 ****
 1  2  3  4  5  17  18  19  20  21  22  23  24  25 0
 3-21G
 ****
 26  28  29  30  38  39  40  41  42  43  44  45 0
 3-21G
 ****


