%nproc=1
%NoSave
%Mem=1900MB
#P OB98/GEN NMR

erre ene a

0 1
  C     1076.946      67.288    -411.664
  O     1075.969      66.703    -412.501
  H     1076.492      67.504    -410.697
  H     1077.328      68.224    -412.092
  H     1077.773      66.587    -411.501
  P     1076.369      66.392    -414.028
  C     1076.380      68.915    -414.617
  O     1077.111      67.701    -414.580
  C     1077.158      70.047    -413.949
  O     1078.573      69.898    -414.279
  C     1076.733      71.457    -414.396
  O     1076.963      72.358    -413.303
  C     1077.703      71.727    -415.539
  O     1077.714      73.082    -415.887
  C     1078.980      71.133    -414.927
  N     1080.015      70.902    -415.928
  C     1080.957      71.918    -416.078
  O     1080.886      72.956    -415.402
  N     1081.951      71.775    -417.025
  C     1081.949      70.720    -417.791
  N     1082.936      70.636    -418.709
  C     1080.930      69.648    -417.711
  C     1080.005      69.807    -416.754
  O     1075.255      65.884    -414.899
  O     1077.553      65.322    -413.902
  H     1078.157      73.617    -415.195
  H     1077.221      64.440    -414.138
  H     1080.950      68.808    -418.382
  H     1079.213      69.075    -416.606
  H     1079.385      71.785    -414.153
  H     1077.415      71.174    -416.422
  H     1075.672      71.495    -414.702
  H     1077.073      69.935    -412.861
  H     1083.606      71.392    -418.756
  H     1075.440      68.744    -414.080
  H     1083.019      69.888    -419.379
  H     1076.138      69.187    -415.648
  P     1075.781      72.886    -412.351
  C     1075.579      75.317    -413.192
  O     1074.948      74.043    -413.116
  O     1076.241      73.260    -410.979
  O     1074.726      71.676    -412.267
  H     1074.296      71.694    -411.411
  H     1074.942      76.000    -413.715
  H     1076.508      75.224    -413.714
  H     1075.761      75.685    -412.204

 6  7  8  9  10  11  12  13  14  15  16  26  30  31  32  33  35 0
 6-311+G(2d,p)
 ****
 37  38 0
 6-311+G(2d,p)
 ****
 1  2  3  4  5  17  18  19  20  21  22  23  24  25 0
 3-21G
 ****
 27  28  29  34  36  39  40  41  42  43  44  45  46 0
 3-21G
 ****


