%nproc=1
%NoSave
%Mem=1900MB
#P OB98/GEN NMR

erre ene a

0 1
  C       -9.031      60.834     -36.841
  O       -8.829      62.159     -36.393
  H       -9.987      60.473     -36.454
  H       -8.233      60.183     -36.472
  H       -9.056      60.805     -37.933
  P       -7.421      62.833     -36.772
  C       -6.502      63.648     -39.074
  O       -7.420      62.818     -38.379
  C       -5.654      62.801     -40.016
  O       -4.938      61.785     -39.281
  C       -6.457      62.051     -41.072
  O       -6.851      62.875     -42.156
  C       -5.441      61.006     -41.495
  O       -4.451      61.613     -42.347
  C       -4.833      60.610     -40.131
  N       -5.504      59.467     -39.512
  C       -5.499      58.269     -40.236
  O       -4.961      58.206     -41.340
  N       -6.136      57.172     -39.706
  C       -6.717      57.259     -38.550
  N       -7.344      56.147     -38.079
  C       -6.732      58.495     -37.747
  C       -6.116      59.546     -38.281
  O       -6.351      61.697     -36.414
  O       -7.141      64.160     -36.153
  H       -3.734      60.962     -42.454
  H       -5.456      61.969     -36.730
  H       -7.239      58.522     -36.793
  H       -6.088      60.490     -37.748
  H       -3.766      60.377     -40.231
  H       -5.883      60.180     -42.054
  H       -7.321      61.540     -40.634
  H       -4.904      63.458     -40.478
  H       -7.371      55.333     -38.679
  H       -5.865      64.151     -38.339
  H       -7.970      56.170     -37.284
  H       -7.043      64.403     -39.653
  P       -8.171      62.456     -42.968
  C      -10.567      61.713     -42.296
  O       -9.212      61.865     -41.899
  O       -7.701      61.160     -43.778
  O       -8.718      63.516     -43.874
  H       -8.087      61.144     -44.674
  H      -11.134      61.311     -41.482
  H      -10.621      61.047     -43.132
  H      -10.967      62.666     -42.573

 6  7  8  9  10  11  12  13  14  15  16  26  30  31  32  33  35 0
 6-311+G(2d,p)
 ****
 37  38 0
 6-311+G(2d,p)
 ****
 1  2  3  4  5  17  18  19  20  21  22  23  24  25 0
 3-21G
 ****
 27  28  29  34  36  39  40  41  42  43  44  45  46 0
 3-21G
 ****


