%nproc=1
%NoSave
%Mem=1900MB
#P OB98/GEN NMR

erre ene a

0 1
  C     -224.210     631.472     539.188
  O     -223.240     632.028     540.049
  H     -223.777     630.597     538.695
  H     -224.488     632.203     538.424
  H     -225.097     631.159     539.740
  P     -223.699     633.115     541.129
  C     -223.475     631.623     543.223
  O     -222.971     632.744     542.508
  C     -224.581     632.051     544.197
  O     -225.364     630.885     544.562
  C     -223.997     632.620     545.496
  O     -224.871     633.563     546.107
  C     -223.892     631.394     546.386
  O     -223.871     631.710     547.773
  C     -225.125     630.600     545.951
  N     -225.219     626.717     549.250
  C     -225.222     628.074     549.501
  N     -225.260     628.444     550.806
  N     -225.171     628.987     548.567
  C     -225.070     628.467     547.316
  C     -225.033     627.144     546.944
  C     -225.128     626.145     547.990
  O     -225.106     624.931     547.825
  N     -224.914     627.008     545.581
  C     -224.871     628.247     545.131
  N     -224.986     629.170     546.145
  O     -225.226     632.728     541.427
  O     -223.570     634.546     540.704
  H     -223.068     632.238     547.941
  H     -225.706     633.495     541.788
  H     -225.289     626.059     550.007
  H     -224.771     628.527     544.091
  H     -226.009     630.925     546.515
  H     -222.953     630.878     546.152
  H     -225.098     627.785     551.547
  H     -223.024     633.082     545.350
  H     -224.948     629.398     551.012
  H     -225.267     632.752     543.704
  H     -222.632     631.190     543.769
  H     -223.841     630.864     542.530
  P     -224.971     635.036     545.484
  C     -227.014     634.917     543.800
  O     -226.477     635.335     545.036
  O     -224.185     634.916     544.102
  O     -224.416     636.116     546.355
  H     -223.383     635.479     544.115
  H     -228.034     635.233     543.729
  H     -226.965     633.850     543.733
  H     -226.450     635.351     543.001

 6  7  8  9  10  11  12  13  14  15  26  29  33  34 0
 6-311+G(2d,p)
 ****
 36  38  39  40  41 0
 6-311+G(2d,p)
 ****
 1  2  3  4  5  16  17  18  19  20  21  22  23  24  25 0
 3-21G
 ****
 27  28  30  31  32  35  37  42  43  44  45  46  47 0
 3-21G
 ****
 48  49 0
 3-21G
 ****


