%nproc=1
%NoSave
%Mem=1900MB
#P OB98/GEN NMR

erre ene a

0 1
  C     -207.402     120.578      32.582
  O     -206.766     121.059      33.748
  H     -206.872     120.963      31.707
  H     -208.439     120.921      32.544
  H     -207.370     119.486      32.561
  P     -207.451     120.694      35.151
  C     -207.476     123.078      36.185
  O     -206.926     121.768      36.219
  C     -206.916     123.896      37.345
  O     -207.220     123.239      38.599
  C     -205.402     124.047      37.325
  O     -204.961     125.040      36.414
  C     -205.132     124.428      38.771
  O     -205.300     125.837      38.989
  C     -206.190     123.615      39.537
  N     -205.604     122.455      40.203
  C     -205.757     122.412      41.586
  O     -206.346     123.280      42.228
  N     -205.175     121.349      42.218
  C     -204.426     120.376      41.623
  O     -203.884     119.480      42.257
  C     -204.283     120.483      40.162
  C     -204.866     121.504      39.528
  O     -206.712     119.340      35.576
  O     -208.934     120.531      35.103
  H     -207.316     118.584      35.457
  H     -204.843     126.280      38.246
  H     -205.277     121.298      43.220
  H     -203.694     119.727      39.657
  H     -204.765     121.610      38.453
  H     -206.673     124.238      40.301
  H     -204.113     124.178      39.055
  H     -204.927     123.080      37.117
  H     -207.403     124.880      37.345
  H     -208.565     123.024      36.282
  H     -207.232     123.542      35.224
  P     -203.651     124.726      35.544
  C     -202.804     126.857      34.253
  O     -203.690     125.749      34.311
  O     -204.049     123.311      34.911
  O     -202.397     124.728      36.350
  H     -205.014     123.210      34.831
  H     -202.988     127.414      33.358
  H     -201.793     126.506      34.253
  H     -202.963     127.486      35.104

 6  7  8  9  10  11  12  13  14  15  16  27  31  32  33  34  35 0
 6-311+G(2d,p)
 ****
 36  37 0
 6-311+G(2d,p)
 ****
 1  2  3  4  5  17  18  19  20  21  22  23  24  25 0
 3-21G
 ****
 26  28  29  30  38  39  40  41  42  43  44  45 0
 3-21G
 ****


