%nproc=1
%NoSave
%Mem=1900MB
#P OB98/GEN NMR

erre ene a

0 1
  C       10.497     -93.708      83.859
  O       10.674     -94.973      84.492
  P       10.636     -95.211      86.070
  C        8.143     -96.007      85.905
  O        9.107     -95.182      86.541
  C        7.575     -97.096      86.831
  O        8.654     -97.951      87.291
  C        6.956     -96.469      88.081
  O        5.632     -95.972      88.046
  C        7.209     -97.484      89.187
  O        6.108     -98.374      89.376
  C        8.435     -98.251      88.685
  N       11.127     -99.117      92.947
  C        9.876     -99.582      92.597
  N        9.232    -100.334      93.515
  N        9.300     -99.318      91.455
  C       10.013     -98.484      90.666
  C       11.253     -97.942      90.913
  C       11.910     -98.288      92.156
  O       13.022     -97.913      92.511
  N       11.656     -97.122      89.889
  C       10.651     -97.147      89.039
  N        9.630     -97.967      89.462
  O       11.605     -94.408      86.868
  O       11.049     -96.764      86.220
  H        5.295     -97.840      89.422
  H       11.537     -96.841      87.064
  H       11.534     -99.371      93.832
  H       10.613     -96.600      88.105
  H        8.276     -99.334      88.748
  H        7.366     -96.976      90.146
  H        9.569    -100.474      94.454
  H        7.573     -95.597      88.339
  H        8.237    -100.494      93.353
  H        6.887     -97.749      86.288
  H        8.635     -96.460      85.040
  H        7.328     -95.396      85.513
  P        5.196     -94.432      88.091
  C        4.163     -94.991      85.815
  O        4.778     -93.994      86.611
  O        6.573     -93.647      88.313
  O        4.209     -94.086      89.157
  H        6.400     -92.735      88.611
  H        4.207     -94.687      84.766
  H        3.114     -95.100      86.110
  H        4.674     -95.952      85.929
  H       10.568     -93.827      82.798
  H       11.256     -93.032      84.194
  H        9.534     -93.315      84.110

 3  4  5  6  7  8  9  10  11  12  23  26  30  31 0
 6-311+G(2d,p)
 ****
 33  35  36  37  38 0
 6-311+G(2d,p)
 ****
 1  2  13  14  15  16  17  18  19  20  21  22  24  25 0
 3-21G
 ****
 27  28  29  32  34  39  40  41  42  43  44  45  46  47  48  49 0
 3-21G
 ****


