%nproc=1
%NoSave
%Mem=1900MB
#P OB98/GEN NMR

erre ene a

0 1
  C     -158.469     530.534    -220.578
  O     -159.128     529.946    -221.678
  H     -157.741     529.819    -220.185
  H     -159.196     530.763    -219.793
  H     -157.943     531.447    -220.868
  P     -159.910     530.893    -222.703
  C     -158.077     531.811    -224.269
  O     -158.907     532.068    -223.144
  C     -157.867     533.064    -225.121
  O     -159.141     533.580    -225.571
  C     -157.205     534.197    -224.339
  O     -155.792     534.139    -224.268
  C     -157.665     535.426    -225.116
  O     -156.793     535.682    -226.231
  C     -159.056     535.015    -225.604
  N     -162.323     538.891    -224.962
  C     -161.323     538.745    -225.905
  N     -161.133     539.789    -226.739
  N     -160.570     537.681    -225.996
  C     -160.811     536.760    -225.032
  C     -161.767     536.800    -224.040
  C     -162.632     537.961    -223.979
  O     -163.528     538.142    -223.163
  N     -161.716     535.679    -223.248
  C     -160.687     534.999    -223.714
  N     -160.123     535.602    -224.813
  O     -160.961     531.670    -221.772
  O     -160.605     530.187    -223.827
  H     -157.081     536.509    -226.659
  H     -161.733     531.942    -222.299
  H     -162.891     539.722    -224.955
  H     -160.328     534.058    -223.311
  H     -159.222     535.322    -226.645
  H     -157.655     536.326    -224.494
  H     -161.607     540.672    -226.631
  H     -157.621     534.256    -223.327
  H     -160.250     539.832    -227.256
  H     -157.291     532.801    -226.016
  H     -158.574     531.039    -224.858
  H     -157.116     531.405    -223.946
  P     -155.039     534.530    -222.909
  C     -154.321     532.091    -222.350
  O     -155.064     533.229    -221.972
  O     -156.075     535.527    -222.206
  O     -153.701     535.155    -223.091
  H     -155.832     536.452    -222.394
  H     -154.450     531.322    -221.618
  H     -153.285     532.348    -222.419
  H     -154.665     531.740    -223.300

 6  7  8  9  10  11  12  13  14  15  26  29  33  34 0
 6-311+G(2d,p)
 ****
 36  38  39  40  41 0
 6-311+G(2d,p)
 ****
 1  2  3  4  5  16  17  18  19  20  21  22  23  24  25 0
 3-21G
 ****
 27  28  30  31  32  35  37  42  43  44  45  46  47 0
 3-21G
 ****
 48  49 0
 3-21G
 ****


