%nproc=1
%NoSave
%Mem=1900MB
#P OB98/GEN NMR

erre ene a

0 1
  C     1110.158     725.572    -264.634
  O     1109.085     724.714    -264.289
  H     1111.067     724.976    -264.739
  H     1110.315     726.327    -263.856
  H     1109.953     726.064    -265.596
  P     1107.662     725.369    -263.971
  C     1106.104     723.344    -264.407
  O     1106.769     724.132    -263.432
  C     1104.978     722.540    -263.754
  O     1105.519     721.435    -262.981
  C     1104.117     723.341    -262.770
  O     1103.215     724.225    -263.403
  C     1103.395     722.181    -262.077
  O     1102.365     721.670    -262.928
  C     1104.550     721.143    -261.931
  N     1105.214     721.218    -260.613
  C     1104.514     720.652    -259.540
  O     1103.413     720.128    -259.704
  N     1105.072     720.707    -258.284
  C     1106.213     721.316    -258.121
  N     1106.692     721.404    -256.827
  C     1106.989     721.912    -259.225
  C     1106.441     721.836    -260.443
  O     1107.043     726.185    -265.062
  O     1107.894     726.201    -262.611
  H     1102.051     720.838    -262.556
  H     1107.034     726.632    -262.368
  H     1107.929     722.401    -259.028
  H     1106.932     722.257    -261.287
  H     1104.180     720.127    -262.094
  H     1102.923     722.469    -261.119
  H     1104.744     723.846    -262.036
  H     1104.372     722.106    -264.563
  H     1106.118     721.017    -256.099
  H     1106.839     722.685    -264.878
  H     1107.407     722.070    -256.602
  H     1105.654     723.990    -265.168
  P     1103.009     725.685    -262.723
  C     1103.320     727.339    -264.700
  O     1102.415     726.626    -263.865
  O     1104.504     726.198    -262.529
  O     1102.189     725.684    -261.457
  H     1104.827     725.979    -261.619
  H     1102.769     727.920    -265.409
  H     1103.949     726.646    -265.219
  H     1103.924     727.988    -264.100

 6  7  8  9  10  11  12  13  14  15  16  26  30  31  32  33  35 0
 6-311+G(2d,p)
 ****
 37  38 0
 6-311+G(2d,p)
 ****
 1  2  3  4  5  17  18  19  20  21  22  23  24  25 0
 3-21G
 ****
 27  28  29  34  36  39  40  41  42  43  44  45  46 0
 3-21G
 ****


