%nproc=1
%NoSave
%Mem=1900MB
#P OB98/GEN NMR

erre ene a

0 1
  C      195.396    -321.925    1080.862
  O      196.411    -322.823    1080.391
  P      197.643    -322.161    1079.604
  C      199.561    -322.483    1081.347
  O      198.658    -321.581    1080.699
  C      199.859    -322.026    1082.767
  O      198.655    -321.910    1083.545
  C      200.745    -322.979    1083.559
  O      202.124    -322.820    1083.229
  C      200.486    -322.524    1084.984
  O      201.308    -321.376    1085.280
  C      199.005    -322.124    1084.940
  N      196.407    -323.594    1089.042
  C      197.207    -322.484    1088.847
  N      197.320    -321.632    1089.903
  N      197.852    -322.225    1087.742
  C      197.624    -323.162    1086.765
  C      196.863    -324.311    1086.843
  C      196.175    -324.584    1088.082
  O      195.481    -325.574    1088.320
  N      196.866    -324.988    1085.638
  C      197.618    -324.257    1084.853
  N      198.125    -323.141    1085.499
  O      197.005    -320.833    1078.963
  O      198.248    -323.049    1078.560
  H      202.233    -321.676    1085.272
  H      197.490    -320.574    1078.151
  H      195.942    -323.744    1089.930
  H      197.838    -324.470    1083.822
  H      198.813    -321.173    1085.472
  H      200.731    -323.288    1085.731
  H      196.805    -321.724    1090.758
  H      200.423    -324.027    1083.431
  H      197.881    -320.795    1089.760
  H      200.334    -321.037    1082.726
  H      200.502    -322.543    1080.776
  H      199.126    -323.490    1081.336
  P      202.712    -323.730    1082.028
  C      202.907    -321.606    1080.531
  O      202.395    -322.922    1080.672
  O      201.695    -324.980    1081.994
  O      204.129    -324.166    1082.210
  H      202.140    -325.769    1081.679
  H      203.937    -321.538    1080.885
  H      202.265    -320.908    1081.104
  H      202.860    -321.329    1079.484
  H      194.634    -322.481    1081.367
  H      194.967    -321.405    1080.031
  H      195.830    -321.219    1081.539

 3  4  5  6  7  8  9  10  11  12  23  26  30  31  33  0
 6-311+G(2d,p)
 ****
 35  36  37  38 0
 6-311+G(2d,p)
 ****
 1  2  13  14  15  16  17  18  19  20  21  22  24  25  27  28  29 0
 3-21G
 ****
 32  34  39  40  41  42  43  44  45  46  47  48  49 0
 3-21G
 ****


