%nproc=1
%NoSave
%Mem=1900MB
#P OB98/GEN NMR

erre ene a

0 1
  C     -288.701     -45.940     418.443
  O     -289.567     -44.945     418.952
  H     -287.769     -45.920     419.017
  H     -288.467     -45.742     417.391
  H     -289.153     -46.931     418.544
  P     -291.007     -44.770     418.268
  C     -290.519     -42.521     417.096
  O     -290.757     -43.914     416.936
  C     -289.401     -42.069     416.161
  O     -288.188     -42.797     416.440
  C     -289.703     -42.287     414.676
  O     -290.531     -41.246     414.182
  C     -288.295     -42.264     414.104
  O     -287.828     -40.904     414.025
  C     -287.512     -43.038     415.177
  N     -284.522     -47.133     415.257
  C     -284.216     -45.806     415.477
  N     -282.912     -45.528     415.712
  N     -285.096     -44.839     415.450
  C     -286.342     -45.264     415.137
  C     -286.767     -46.551     414.879
  C     -285.799     -47.617     414.966
  O     -286.031     -48.811     414.795
  N     -288.094     -46.580     414.526
  C     -288.477     -45.320     414.613
  N     -287.447     -44.476     414.963
  O     -292.096     -44.225     419.145
  O     -291.355     -46.229     417.713
  H     -288.332     -40.475     413.307
  H     -291.868     -46.742     418.366
  H     -283.795     -47.833     415.273
  H     -289.485     -44.964     414.429
  H     -286.484     -42.683     415.276
  H     -288.238     -42.693     413.101
  H     -282.175     -46.172     415.464
  H     -290.140     -43.275     414.495
  H     -282.659     -44.551     415.828
  H     -289.199     -41.009     416.365
  H     -290.240     -42.351     418.140
  H     -291.434     -41.950     416.879
  P     -292.114     -41.454     414.010
  C     -291.525     -41.775     411.518
  O     -292.287     -42.238     412.621
  O     -292.928     -40.209     414.129
  O     -292.490     -42.572     415.092
  H     -292.712     -42.208     415.983
  H     -291.733     -42.381     410.661
  H     -290.483     -41.836     411.754
  H     -291.784     -40.758     411.307

 6  7  8  9  10  11  12  13  14  15  26  29  33  34 0
 6-311+G(2d,p)
 ****
 36  38  39  40  41 0
 6-311+G(2d,p)
 ****
 1  2  3  4  5  16  17  18  19  20  21  22  23  24  25 0
 3-21G
 ****
 27  28  30  31  32  35  37  42  43  44  45  46  47 0
 3-21G
 ****
 48  49 0
 3-21G
 ****


