%nproc=1
%NoSave
%Mem=1900MB
#P OB98/GEN NMR

erre ene a

0 1
  C       57.692     -48.570      11.018
  O       58.307     -47.368      10.600
  H       58.171     -48.907      11.940
  H       57.813     -49.343      10.254
  H       56.630     -48.401      11.210
  P       57.819     -46.766       9.193
  C       59.804     -48.212       8.316
  O       58.475     -47.759       8.112
  C       60.537     -48.297       6.982
  O       60.156     -49.494       6.266
  C       60.243     -47.146       6.023
  O       60.935     -45.953       6.348
  C       60.743     -47.754       4.725
  O       62.182     -47.744       4.710
  C       60.195     -49.192       4.845
  N       58.865     -49.349       4.249
  C       58.811     -49.455       2.854
  O       59.838     -49.413       2.180
  N       57.583     -49.571       2.248
  C       56.506     -49.601       2.968
  N       55.320     -49.714       2.312
  C       56.517     -49.505       4.439
  C       57.714     -49.383       5.007
  O       58.701     -45.441       9.031
  O       56.351     -46.556       9.044
  H       62.454     -48.096       3.843
  H       58.585     -45.067       8.124
  H       55.591     -49.522       4.996
  H       57.802     -49.309       6.085
  H       60.875     -49.912       4.375
  H       60.413     -47.213       3.839
  H       59.167     -46.961       5.935
  H       61.610     -48.372       7.194
  H       55.341     -49.717       1.300
  H       59.762     -49.201       8.786
  H       54.425     -49.596       2.768
  H       60.338     -47.525       8.979
  P       60.157     -44.566       6.120
  C       61.383     -43.823       3.947
  O       60.175     -44.277       4.544
  O       61.171     -43.480       6.707
  O       58.811     -44.486       6.768
  H       60.688     -42.737       7.118
  H       61.230     -43.678       2.898
  H       62.151     -44.552       4.098
  H       61.677     -42.897       4.396

 6  7  8  9  10  11  12  13  14  15  16  26  30  31  32  33  35 0
 6-311+G(2d,p)
 ****
 37  38 0
 6-311+G(2d,p)
 ****
 1  2  3  4  5  17  18  19  20  21  22  23  24  25 0
 3-21G
 ****
 27  28  29  34  36  39  40  41  42  43  44  45  46 0
 3-21G
 ****


