%nproc=1
%NoSave
%Mem=1900MB
#P OB98/GEN NMR

erre ene a

0 1
  C      -26.746    -113.838      46.581
  O      -27.035    -113.541      47.932
  H      -27.485    -114.557      46.217
  H      -25.754    -114.288      46.497
  H      -26.802    -112.937      45.965
  P      -26.157    -112.430      48.685
  C      -26.271    -110.541      46.944
  O      -26.718    -111.001      48.211
  C      -26.477    -109.033      46.817
  O      -25.929    -108.593      45.548
  C      -27.949    -108.607      46.866
  O      -28.039    -107.374      47.580
  C      -28.298    -108.379      45.408
  O      -29.364    -107.445      45.246
  C      -26.968    -107.891      44.839
  N      -27.800    -105.904      40.269
  C      -27.931    -105.341      41.523
  N      -28.373    -104.066      41.575
  N      -27.655    -105.975      42.633
  C      -27.209    -107.239      42.433
  C      -27.038    -107.909      41.246
  C      -27.359    -107.202      40.024
  O      -27.277    -107.651      38.887
  N      -26.592    -109.190      41.457
  C      -26.497    -109.293      42.771
  N      -26.871    -108.140      43.408
  O      -24.676    -112.587      48.554
  O      -26.633    -112.524      50.207
  H      -29.736    -107.587      44.349
  H      -25.994    -113.036      50.738
  H      -28.035    -105.375      39.448
  H      -26.173    -110.176      43.307
  H      -26.821    -106.813      44.984
  H      -28.599    -109.328      44.947
  H      -28.589    -103.511      40.761
  H      -28.594    -109.357      47.333
  H      -28.454    -103.625      42.483
  H      -25.897    -108.535      47.603
  H      -26.845    -111.059      46.168
  H      -25.210    -110.786      46.822
  P      -29.075    -107.262      48.798
  C      -27.437    -108.117      50.594
  O      -28.239    -107.028      50.147
  O      -30.110    -108.335      48.868
  O      -29.750    -105.824      48.557
  H      -30.664    -105.844      48.903
  H      -26.932    -107.841      51.496
  H      -26.716    -108.361      49.842
  H      -28.061    -108.966      50.780

 6  7  8  9  10  11  12  13  14  15  26  29  33  34 0
 6-311+G(2d,p)
 ****
 36  38  39  40  41 0
 6-311+G(2d,p)
 ****
 1  2  3  4  5  16  17  18  19  20  21  22  23  24  25 0
 3-21G
 ****
 27  28  30  31  32  35  37  42  43  44  45  46  47 0
 3-21G
 ****
 48  49 0
 3-21G
 ****


