%nproc=1
%NoSave
%Mem=1900MB
#P OB98/GEN NMR

erre ene a

0 1
  C      -96.708     127.690     413.648
  O      -96.478     127.409     415.033
  P      -95.034     126.885     415.488
  C      -93.786     124.632     415.647
  O      -94.905     125.325     415.113
  C      -94.176     123.209     416.064
  O      -95.225     123.242     417.078
  C      -94.714     122.376     414.889
  O      -94.358     120.994     415.049
  C      -96.217     122.492     415.053
  O      -96.901     121.438     414.379
  C      -96.338     122.471     416.575
  N     -101.430     121.906     416.662
  C     -100.445     121.118     416.167
  N      -99.112     121.325     416.201
  C      -98.822     122.472     416.840
  C      -99.716     123.369     417.402
  C     -101.082     123.054     417.288
  N     -102.086     123.865     417.769
  N      -99.052     124.439     417.967
  C      -97.778     124.213     417.706
  N      -97.590     123.027     417.055
  O      -94.630     127.232     416.881
  O      -94.054     127.573     414.420
  H      -96.647     120.600     414.814
  H      -93.255     127.896     414.880
  H     -100.776     120.209     415.669
  H      -96.964     124.881     417.949
  H      -96.248     121.456     416.976
  H      -96.560     123.446     414.637
  H      -94.377     122.713     413.903
  H      -93.309     122.719     416.519
  H      -93.391     125.178     416.509
  H     -103.037     123.614     417.538
  H     -101.849     124.789     418.104
  H      -92.983     124.623     414.901
  P      -93.998     120.197     413.696
  C      -95.379     118.663     412.088
  O      -95.327     119.406     413.286
  O      -92.749     119.379     413.798
  O      -93.900     121.388     412.631
  H      -94.659     121.999     412.631
  H      -96.315     118.103     412.061
  H      -94.545     117.960     412.035
  H      -95.346     119.338     411.229
  H      -97.715     128.028     413.515
  H      -96.551     126.801     413.073
  H      -96.030     128.451     413.321

 3  4  5  6  7  8  9  10  11  12  22  25  29  30  31  32 0
 6-311+G(2d,p)
 ****
 33  36  37 0
 6-311+G(2d,p)
 ****
 1  2  13  14  15  16  17  18  19  20  21  23  24  26 0
 3-21G
 ****
 27  28  34  35  38  39  40  41  42  43  44  45  46  47  48 0
 3-21G
 ****


