%nproc=1
%NoSave
%Mem=1900MB
#P OB98/GEN NMR

erre ene a

0 1
  C     -234.004     -31.160     219.678
  O     -232.739     -30.785     219.166
  H     -234.331     -30.403     220.395
  H     -233.932     -32.123     220.192
  H     -234.736     -31.219     218.867
  P     -232.091     -31.765     218.072
  C     -233.406     -30.638     216.145
  O     -233.186     -31.823     216.899
  C     -232.676     -30.717     214.802
  O     -233.112     -31.868     214.058
  C     -232.910     -29.519     213.891
  O     -232.079     -28.428     214.260
  C     -232.506     -30.105     212.547
  O     -231.070     -30.105     212.425
  C     -233.023     -31.553     212.641
  N     -235.469     -33.023     208.369
  C     -234.171     -32.730     208.606
  N     -233.600     -32.304     209.752
  C     -234.517     -32.188     210.729
  C     -235.876     -32.450     210.636
  C     -236.350     -32.897     209.389
  N     -237.675     -33.202     209.157
  N     -236.505     -32.214     211.842
  C     -235.532     -31.867     212.666
  N     -234.316     -31.803     212.027
  O     -231.599     -33.073     218.583
  O     -230.967     -30.814     217.439
  H     -230.716     -30.687     213.124
  H     -231.295     -29.900     217.361
  H     -233.499     -32.857     207.760
  H     -235.653     -31.670     213.722
  H     -232.322     -32.263     212.188
  H     -232.895     -29.526     211.705
  H     -233.971     -29.241     213.857
  H     -231.605     -30.848     215.011
  H     -233.063     -29.762     216.704
  H     -237.956     -33.349     208.198
  H     -238.346     -32.988     209.879
  H     -234.486     -30.546     215.981
  P     -232.513     -26.920     213.933
  C     -232.983     -26.538     216.434
  O     -233.507     -26.464     215.111
  O     -233.042     -26.704     212.555
  O     -231.200     -26.056     214.211
  H     -231.118     -25.342     213.551
  H     -233.727     -26.213     217.131
  H     -232.121     -25.908     216.512
  H     -232.707     -27.549     216.652

 6  7  8  9  10  11  12  13  14  15  25  28  32  33  34  35 0
 6-311+G(2d,p)
 ****
 36  39  40 0
 6-311+G(2d,p)
 ****
 1  2  3  4  5  16  17  18  19  20  21  22  23  24 0
 3-21G
 ****
 26  27  29  30  31  37  38  41  42  43  44  45  46  47 0
 3-21G
 ****
 48 0
 3-21G
 ****


