%nproc=1
%NoSave
%Mem=1900MB
#P OB98/GEN NMR

erre ene a

0 1
  C     -155.299    1065.144     200.337
  O     -154.607    1066.071     199.523
  H     -155.167    1064.147     199.921
  H     -156.371    1065.369     200.356
  H     -154.898    1065.152     201.360
  P     -154.563    1067.613     199.967
  C     -152.235    1067.987     198.948
  O     -153.604    1068.367     198.917
  C     -151.540    1068.373     197.658
  O     -152.002    1067.523     196.599
  C     -151.804    1069.839     197.228
  O     -150.610    1070.362     196.654
  C     -152.862    1069.688     196.142
  O     -152.842    1070.774     195.226
  C     -152.505    1068.348     195.524
  N     -155.686    1068.621     191.585
  C     -154.579    1069.365     191.882
  N     -154.257    1070.381     191.022
  N     -153.814    1069.168     192.948
  C     -154.233    1068.119     193.713
  C     -155.320    1067.313     193.529
  C     -156.149    1067.555     192.361
  O     -157.168    1066.917     192.051
  N     -155.419    1066.386     194.546
  C     -154.388    1066.664     195.342
  N     -153.653    1067.723     194.881
  O     -154.233    1067.860     201.405
  O     -156.018    1068.164     199.587
  H     -153.474    1070.550     194.506
  H     -156.591    1068.212     200.370
  H     -156.243    1068.817     190.766
  H     -154.157    1066.111     196.237
  H     -151.721    1068.421     194.737
  H     -153.856    1069.655     196.615
  H     -154.791    1070.594     190.191
  H     -152.132    1070.470     198.054
  H     -153.446    1070.930     191.216
  H     -150.457    1068.189     197.762
  H     -152.180    1066.910     199.093
  H     -151.737    1068.468     199.804
  P     -150.183    1071.862     196.970
  C     -148.287    1071.902     198.745
  O     -148.621    1071.892     197.335
  O     -151.058    1072.583     197.965
  O     -150.216    1072.583     195.541
  H     -150.441    1073.507     195.651
  H     -147.223    1071.922     198.859
  H     -148.679    1071.022     199.211
  H     -148.712    1072.769     199.206

 6  7  8  9  10  11  12  13  14  15  26  29  33  34 0
 6-311+G(2d,p)
 ****
 36  38  39  40  41 0
 6-311+G(2d,p)
 ****
 1  2  3  4  5  16  17  18  19  20  21  22  23  24  25 0
 3-21G
 ****
 27  28  30  31  32  35  37  42  43  44  45  46  47 0
 3-21G
 ****
 48  49 0
 3-21G
 ****


