%nproc=1
%NoSave
%Mem=1900MB
#P OB98/GEN NMR

erre ene a

0 1
  C      -61.922     -34.788       2.314
  O      -60.823     -34.100       2.878
  H      -61.651     -35.120       1.310
  H      -62.786     -34.121       2.246
  H      -62.173     -35.662       2.920
  P      -61.019     -33.543       4.369
  C      -60.804     -34.585       6.748
  O      -60.658     -34.761       5.347
  C      -60.236     -35.794       7.501
  O      -61.102     -36.943       7.261
  C      -58.825     -36.202       7.048
  O      -58.161     -36.812       8.168
  C      -59.130     -37.258       5.999
  O      -57.977     -38.001       5.679
  C      -60.274     -37.985       6.699
  N      -62.197     -42.674       6.024
  C      -61.516     -42.121       7.051
  N      -61.047     -40.862       7.165
  C      -61.364     -40.137       6.078
  C      -62.061     -40.560       4.958
  C      -62.485     -41.900       4.951
  N      -63.171     -42.469       3.903
  N      -62.187     -39.529       4.044
  C      -61.578     -38.504       4.605
  N      -61.059     -38.827       5.829
  O      -62.606     -33.401       4.503
  O      -60.315     -32.263       4.673
  H      -57.646     -38.486       6.465
  H      -62.877     -32.486       4.301
  H      -61.319     -42.778       7.893
  H      -61.476     -37.518       4.170
  H      -59.915     -38.606       7.528
  H      -59.473     -36.794       5.068
  H      -58.226     -35.363       6.684
  H      -60.269     -35.593       8.577
  H      -61.870     -34.474       6.974
  H      -60.274     -33.680       7.060
  H      -63.426     -43.441       3.970
  H      -63.377     -41.908       3.089
  P      -57.000     -36.000       8.928
  C      -57.294     -33.698      10.135
  O      -57.675     -35.062      10.041
  O      -56.561     -34.930       7.816
  O      -55.828     -36.810       9.374
  H      -55.627     -34.684       7.952
  H      -57.841     -33.229      10.926
  H      -57.508     -33.203       9.211
  H      -56.246     -33.634      10.339

 6  7  8  9  10  11  12  13  14  15  25  28  32  33  34  35 0
 6-311+G(2d,p)
 ****
 36  37  40 0
 6-311+G(2d,p)
 ****
 1  2  3  4  5  16  17  18  19  20  21  22  23  24 0
 3-21G
 ****
 26  27  29  30  31  38  39 41  42  43  44  45  46  47  48 0
 3-21G
 ****


