%nproc=1
%NoSave
%Mem=1900MB
#P OB98/GEN NMR

erre ene a

0 1
  C      213.270    -213.547     381.253
  O      214.268    -213.594     382.251
  H      213.710    -213.158     380.333
  H      212.468    -212.873     381.571
  H      212.864    -214.544     381.058
  P      213.930    -214.414     383.587
  C      213.416    -212.307     385.006
  O      212.915    -213.514     384.448
  C      212.389    -211.698     385.964
  O      211.986    -212.711     386.920
  C      212.917    -210.495     386.754
  O      211.873    -209.525     386.875
  C      213.233    -211.080     388.121
  O      213.193    -210.102     389.157
  C      212.168    -212.160     388.240
  N      212.326    -213.371     393.130
  C      211.772    -212.273     392.500
  N      211.174    -211.354     393.290
  N      211.799    -212.092     391.206
  C      212.395    -213.109     390.537
  C      212.988    -214.239     391.043
  C      212.973    -214.415     392.481
  O      213.467    -215.352     393.100
  N      213.516    -215.018     390.040
  C      213.245    -214.352     388.934
  N      212.560    -213.193     389.181
  O      215.297    -214.338     384.416
  O      213.497    -215.827     383.377
  H      213.749    -210.433     389.894
  H      215.671    -215.232     384.513
  H      212.288    -213.453     394.132
  H      213.526    -214.661     387.937
  H      211.205    -211.760     388.580
  H      214.237    -211.521     388.109
  H      211.072    -211.452     394.286
  H      213.793    -210.029     386.294
  H      210.727    -210.561     392.847
  H      211.496    -211.428     385.392
  H      213.627    -211.601     384.198
  H      214.346    -212.517     385.546
  P      211.465    -208.724     385.547
  C      213.130    -206.790     385.103
  O      212.806    -208.152     384.867
  O      210.745    -207.413     386.119
  O      210.564    -209.487     384.633
  H      209.784    -207.466     385.962
  H      214.039    -206.546     384.595
  H      213.255    -206.630     386.154
  H      212.340    -206.167     384.739

 6  7  8  9  10  11  12  13  14  15  26  29  33  34 0
 6-311+G(2d,p)
 ****
 36  38  39  40  41 0
 6-311+G(2d,p)
 ****
 1  2  3  4  5  16  17  18  19  20  21  22  23  24  25 0
 3-21G
 ****
 27  28  30  31  32  35  37  42  43  44  45  46  47 0
 3-21G
 ****
 48  49 0
 3-21G
 ****


