%nproc=1
%NoSave
%Mem=1900MB
#P OB98/GEN NMR

erre ene a

0 1
  C     -820.385     411.221     271.023
  O     -819.583     410.163     271.495
  H     -820.162     411.398     269.967
  H     -820.149     412.132     271.587
  H     -821.449     410.989     271.122
  P     -820.011     409.471     272.874
  C     -820.215     407.093     271.847
  O     -819.549     407.933     272.781
  C     -819.304     405.925     271.444
  O     -818.049     406.477     270.920
  C     -818.947     404.967     272.595
  O     -818.883     403.637     272.079
  C     -817.543     405.404     272.962
  O     -816.810     404.369     273.615
  C     -816.983     405.784     271.596
  N     -812.512     406.019     273.859
  C     -813.408     404.979     273.762
  N     -813.111     403.840     274.419
  N     -814.525     405.057     273.078
  C     -814.697     406.246     272.452
  C     -813.884     407.348     272.475
  C     -812.655     407.265     273.244
  O     -811.827     408.147     273.390
  N     -814.443     408.378     271.754
  C     -815.597     407.906     271.327
  N     -815.799     406.612     271.717
  O     -821.609     409.389     272.743
  O     -819.589     410.191     274.112
  H     -815.874     404.638     273.669
  H     -822.013     410.164     273.183
  H     -811.670     405.921     274.410
  H     -816.320     408.457     270.744
  H     -816.716     404.914     270.994
  H     -817.573     406.276     273.636
  H     -812.261     403.697     274.943
  H     -819.639     405.006     273.432
  H     -813.743     403.059     274.327
  H     -819.780     405.381     270.616
  H     -820.466     407.677     270.959
  H     -821.138     406.718     272.302
  P     -819.865     402.532     272.707
  C     -820.417     401.149     270.569
  O     -819.764     401.195     271.831
  O     -821.323     403.099     272.335
  O     -819.715     402.354     274.179
  H     -821.957     402.882     273.051
  H     -820.252     400.193     270.117
  H     -820.023     401.916     269.935
  H     -821.467     401.303     270.705

 6  7  8  9  10  11  12  13  14  15  26  29  33  34 0
 6-311+G(2d,p)
 ****
 36  38  39  40  41 0
 6-311+G(2d,p)
 ****
 1  2  3  4  5  16  17  18  19  20  21  22  23  24  25 0
 3-21G
 ****
 27  28  30  31  32  35  37  42  43  44  45  46  47 0
 3-21G
 ****
 48  49 0
 3-21G
 ****


