%nproc=1
%NoSave
%Mem=1900MB
#P OB98/GEN NMR

erre ene a

0 1
  C     -771.003     482.854    -504.703
  O     -772.370     483.126    -504.386
  P     -773.156     482.500    -503.150
  C     -775.381     483.886    -503.137
  O     -774.726     482.652    -503.423
  C     -776.914     483.810    -503.306
  O     -777.240     483.502    -504.681
  C     -777.485     482.677    -502.449
  O     -777.762     482.889    -501.079
  C     -778.681     482.161    -503.256
  O     -779.906     482.776    -502.857
  C     -778.325     482.557    -504.694
  N     -779.997     478.358    -507.092
  C     -780.688     479.226    -506.271
  N     -781.981     478.909    -506.017
  N     -780.157     480.291    -505.736
  C     -778.845     480.443    -506.012
  C     -778.044     479.640    -506.794
  C     -778.652     478.485    -507.434
  O     -778.088     477.704    -508.182
  N     -776.747     480.089    -506.830
  C     -776.753     481.144    -506.036
  N     -778.007     481.415    -505.519
  O     -772.663     482.897    -501.796
  O     -772.903     480.912    -503.318
  H     -780.639     482.253    -503.220
  H     -772.869     480.534    -502.417
  H     -780.457     477.560    -507.501
  H     -775.885     481.764    -505.815
  H     -779.167     483.068    -505.180
  H     -778.804     481.086    -503.106
  H     -782.406     478.046    -506.297
  H     -776.753     481.865    -502.470
  H     -782.428     479.417    -505.247
  H     -777.372     484.782    -503.105
  H     -774.963     484.634    -503.818
  H     -775.140     484.212    -502.126
  P     -777.148     482.059    -499.855
  C     -778.040     484.103    -498.578
  O     -777.647     482.742    -498.489
  O     -775.587     482.444    -499.871
  O     -777.331     480.581    -499.928
  H     -775.071     481.810    -499.338
  H     -778.069     484.530    -497.572
  H     -779.043     484.167    -499.018
  H     -777.338     484.679    -499.189
  H     -770.724     483.401    -505.579
  H     -770.880     481.806    -504.883
  H     -770.381     483.151    -503.884

 3  4  5  6  7  8  9  10  11  12  23  26  30  31 0
 6-311+G(2d,p)
 ****
 33  35  36  37  38 0
 6-311+G(2d,p)
 ****
 1  2  13  14  15  16  17  18  19  20  21  22  24  25 0
 3-21G
 ****
 27  28  29  32  34  39  40  41  42  43  44  45  46  47  48  49 0
 3-21G
 ****


