%nproc=1
%NoSave
%Mem=1900MB
#P OB98/GEN NMR

erre ene a

0 1
  C      -33.974     131.112    -430.476
  O      -34.004     132.019    -429.383
  P      -32.733     132.188    -428.411
  C      -33.608     130.097    -427.168
  O      -32.490     130.730    -427.785
  C      -33.265     128.643    -426.855
  O      -32.973     127.939    -428.080
  C      -32.037     128.458    -425.971
  O      -32.337     128.747    -424.612
  C      -31.687     127.001    -426.270
  O      -32.532     126.119    -425.522
  C      -32.018     126.894    -427.771
  N      -30.831     127.008    -428.627
  C      -30.207     125.809    -428.987
  O      -30.655     124.724    -428.604
  N      -29.109     125.854    -429.809
  C      -28.647     127.005    -430.210
  N      -27.597     126.986    -431.075
  C      -29.239     128.293    -429.811
  C      -30.325     128.217    -429.033
  O      -32.849     133.290    -427.414
  O      -31.488     132.343    -429.407
  H      -32.295     125.207    -425.785
  H      -31.314     133.281    -429.673
  H      -28.817     129.225    -430.168
  H      -30.830     129.125    -428.708
  H      -32.522     125.946    -427.984
  H      -30.643     126.750    -426.035
  H      -31.223     129.109    -426.309
  H      -34.149     128.175    -426.391
  H      -27.342     126.080    -431.462
  H      -34.455     130.122    -427.861
  H      -27.375     127.791    -431.649
  H      -33.877     130.645    -426.255
  P      -31.101     128.949    -423.605
  C      -30.915     126.425    -423.011
  O      -30.300     127.549    -423.613
  O      -31.801     128.993    -422.167
  O      -30.272     130.166    -423.884
  H      -31.875     129.919    -421.863
  H      -30.364     125.535    -423.314
  H      -31.957     126.323    -423.345
  H      -30.872     126.512    -421.928
  H      -34.909     131.148    -430.995
  H      -33.806     130.120    -430.112
  H      -33.184     131.385    -431.144

 3  4  5  6  7  8  9  10  11  12  13  23  27  28  29  30  32 0
 6-311+G(2d,p)
 ****
 34  35 0
 6-311+G(2d,p)
 ****
 1  2  14  15  16  17  18  19  20  21  22  24  25  26 0
 3-21G
 ****
 31  33  36  37  38  39  40  41  42  43  44  45  46 0
 3-21G
 ****


