%nproc=1
%NoSave
%Mem=1900MB
#P OB98/GEN NMR

erre ene a

0 1
  C      -30.313     -24.153      -5.810
  O      -31.502     -23.776      -5.156
  P      -31.582     -23.401      -3.608
  C      -30.443     -21.637      -2.052
  O      -30.405     -22.365      -3.272
  C      -29.051     -21.574      -1.405
  O      -28.669     -22.915      -1.003
  C      -27.987     -21.086      -2.401
  O      -27.048     -20.173      -1.847
  C      -27.440     -22.385      -2.978
  O      -26.161     -22.247      -3.577
  C      -27.516     -23.316      -1.771
  N      -25.047     -27.680      -2.592
  C      -24.574     -26.502      -2.048
  N      -23.237     -26.425      -1.872
  N      -25.341     -25.488      -1.743
  C      -26.638     -25.669      -2.081
  C      -27.223     -26.790      -2.623
  C      -26.371     -27.915      -2.923
  O      -26.729     -28.936      -3.511
  N      -28.551     -26.591      -2.896
  C      -28.765     -25.337      -2.552
  N      -27.624     -24.726      -2.083
  O      -31.818     -24.529      -2.658
  O      -32.887     -22.450      -3.571
  H      -26.239     -21.587      -4.290
  H      -33.330     -22.604      -2.713
  H      -24.393     -28.398      -2.880
  H      -29.709     -24.815      -2.649
  H      -26.637     -23.215      -1.133
  H      -28.127     -22.710      -3.767
  H      -22.610     -27.130      -2.232
  H      -28.453     -20.509      -3.207
  H      -22.845     -25.500      -1.715
  H      -29.100     -20.956      -0.504
  H      -31.139     -22.171      -1.396
  H      -30.838     -20.632      -2.215
  P      -26.358     -18.908      -2.532
  C      -27.142     -16.581      -3.272
  O      -27.504     -17.936      -3.083
  O      -25.694     -19.472      -3.873
  O      -25.325     -18.230      -1.691
  H      -24.828     -19.044      -4.014
  H      -28.054     -15.987      -3.378
  H      -26.547     -16.484      -4.183
  H      -26.571     -16.208      -2.416
  H      -30.521     -24.353      -6.840
  H      -29.916     -25.033      -5.349
  H      -29.599     -23.359      -5.738

 3  4  5  6  7  8  9  10  11  12  23  26  30  31 0
 6-311+G(2d,p)
 ****
 33  35  36  37  38 0
 6-311+G(2d,p)
 ****
 1  2  13  14  15  16  17  18  19  20  21  22  24  25 0
 3-21G
 ****
 27  28  29  32  34  39  40  41  42  43  44  45  46  47  48  49 0
 3-21G
 ****


