%nproc=1
%NoSave
%Mem=1900MB
#P OB98/GEN NMR

erre ene a

0 1
  C      587.534     -79.111     262.475
  O      586.154     -78.935     262.119
  P      585.388     -77.529     262.182
  C      585.052     -77.305     259.614
  O      585.649     -76.757     260.794
  C      584.250     -76.232     258.871
  O      585.146     -75.227     258.332
  C      583.476     -76.741     257.654
  O      582.335     -77.489     258.019
  C      583.169     -75.420     256.938
  O      581.993     -74.802     257.471
  C      584.416     -74.570     257.257
  N      585.270     -74.351     256.103
  C      584.693     -73.710     255.000
  O      583.488     -73.442     255.002
  N      585.486     -73.429     253.920
  C      586.721     -73.819     253.899
  N      587.462     -73.486     252.805
  C      587.334     -74.613     254.981
  C      586.562     -74.843     256.039
  O      585.710     -76.711     263.386
  O      583.824     -77.881     262.125
  H      583.313     -77.176     262.564
  H      581.271     -75.462     257.392
  H      588.355     -74.965     254.905
  H      586.940     -75.399     256.891
  H      584.109     -73.599     257.670
  H      582.999     -75.574     255.865
  H      584.143     -77.350     257.027
  H      583.569     -75.753     259.586
  H      587.018     -72.931     252.086
  H      584.382     -78.112     259.916
  H      588.434     -73.734     252.695
  H      585.842     -77.728     258.981
  P      582.361     -79.064     257.701
  C      583.085     -79.954     260.033
  O      583.438     -79.739     258.679
  O      583.058     -79.144     256.253
  O      581.020     -79.722     257.687
  H      582.624     -79.834     255.722
  H      583.658     -80.801     260.413
  H      582.011     -80.164     260.146
  H      583.335     -79.062     260.615
  H      587.807     -80.138     262.348
  H      587.678     -78.828     263.497
  H      588.146     -78.499     261.846

 3  4  5  6  7  8  9  10  11  12  13  24  27  28  29  30  32 0
 6-311+G(2d,p)
 ****
 34  35 0
 6-311+G(2d,p)
 ****
 1  2  14  15  16  17  18  19  20  21  22  23  25  26 0
 3-21G
 ****
 31  33  36  37  38  39  40  41  42  43  44  45  46 0
 3-21G
 ****


