%nproc=1
%NoSave
%Mem=1900MB
#P OB98/GEN NMR

erre ene a

0 1
  C      971.656     334.844     -92.356
  O      970.874     335.451     -91.353
  H      971.469     333.770     -92.345
  H      972.716     335.021     -92.154
  H      971.402     335.233     -93.347
  P      970.679     337.040     -91.380
  C      968.126     336.639     -91.360
  O      969.211     337.326     -91.963
  C      966.792     337.314     -91.685
  O      966.769     338.647     -91.112
  C      966.633     337.481     -93.198
  O      965.261     337.473     -93.597
  C      967.216     338.865     -93.452
  O      966.758     339.450     -94.668
  C      966.772     339.605     -92.197
  N      967.407     344.655     -92.283
  C      966.425     343.882     -92.875
  N      965.497     344.557     -93.605
  N      966.360     342.586     -92.773
  C      967.390     342.051     -92.076
  C      968.441     342.700     -91.458
  C      968.474     344.151     -91.549
  O      969.333     344.878     -91.061
  N      969.302     341.819     -90.870
  C      968.791     340.633     -91.125
  N      967.618     340.720     -91.844
  O      971.626     337.520     -92.576
  O      971.001     337.755     -90.103
  H      967.085     340.373     -94.692
  H      971.894     338.447     -92.448
  H      967.401     345.660     -92.377
  H      969.213     339.686     -90.807
  H      965.753     339.985     -92.308
  H      968.303     338.763     -93.529
  H      965.612     345.524     -93.853
  H      967.169     336.703     -93.758
  H      964.960     343.996     -94.272
  H      965.964     336.758     -91.230
  H      968.298     336.658     -90.278
  H      968.118     335.593     -91.678
  P      964.569     336.050     -93.843
  C      962.290     336.108     -92.547
  O      963.651     335.726     -92.570
  O      965.785     335.007     -93.725
  O      963.859     335.938     -95.154
  H      966.032     334.683     -94.613
  H      961.850     335.806     -91.619
  H      961.773     335.637     -93.357
  H      962.216     337.171     -92.647

 6  7  8  9  10  11  12  13  14  15  26  29  33  34 0
 6-311+G(2d,p)
 ****
 36  38  39  40  41 0
 6-311+G(2d,p)
 ****
 1  2  3  4  5  16  17  18  19  20  21  22  23  24  25 0
 3-21G
 ****
 27  28  30  31  32  35  37  42  43  44  45  46  47 0
 3-21G
 ****
 48  49 0
 3-21G
 ****


