%nproc=1
%NoSave
%Mem=1900MB
#P OB98/GEN NMR

erre ene a

0 1
  C     -121.413      -2.700     102.668
  O     -121.458      -1.976     103.909
  P     -120.216      -2.085     104.924
  C     -121.365      -4.017     106.263
  O     -120.213      -3.550     105.577
  C     -121.316      -5.541     106.400
  O     -121.227      -6.164     105.098
  C     -120.114      -6.064     107.172
  O     -120.267      -5.892     108.571
  C     -120.091      -7.525     106.740
  O     -121.017      -8.305     107.515
  C     -120.553      -7.430     105.273
  N     -119.455      -7.586     104.325
  C     -119.494      -8.712     103.512
  O     -120.360      -9.580     103.604
  N     -118.476      -8.829     102.605
  C     -117.409      -7.984     102.482
  O     -116.517      -8.154     101.661
  C     -117.380      -6.856     103.423
  C     -118.385      -6.714     104.290
  O     -120.709      -1.178     106.151
  O     -118.906      -1.598     104.399
  H     -121.914      -8.028     107.240
  H     -119.935      -0.802     106.610
  H     -118.500      -9.624     101.985
  H     -116.540      -6.176     103.374
  H     -118.378      -5.885     104.992
  H     -121.305      -8.200     105.064
  H     -119.104      -7.982     106.865
  H     -119.201      -5.572     106.819
  H     -122.251      -5.872     106.871
  H     -122.259      -3.737     105.699
  H     -121.409      -3.543     107.248
  P     -119.313      -4.806     109.272
  C     -117.357      -6.533     109.118
  O     -117.823      -5.226     108.860
  O     -119.454      -5.227     110.811
  O     -119.708      -3.399     108.972
  H     -119.569      -6.187     110.920
  H     -118.159      -7.270     109.039
  H     -116.925      -6.571     110.123
  H     -116.579      -6.778     108.390
  H     -122.312      -2.518     102.116
  H     -121.324      -3.747     102.869
  H     -120.570      -2.374     102.095

 3  4  5  6  7  8  9  10  11  12  13  23  28  29  30  31  32 0
 6-311+G(2d,p)
 ****
 33  34 0
 6-311+G(2d,p)
 ****
 1  2  14  15  16  17  18  19  20  21  22  24  25  26 0
 3-21G
 ****
 27  35  36  37  38  39  40  41  42  43  44  45 0
 3-21G
 ****


