%nproc=1
%NoSave
%Mem=1900MB
#P OB98/GEN NMR

erre ene a

0 1
  C     -631.003     537.170    -445.024
  O     -629.934     537.817    -444.328
  P     -629.748     537.812    -442.744
  C     -627.324     538.802    -442.791
  O     -628.674     538.933    -442.361
  C     -626.309     539.397    -441.796
  O     -626.362     540.843    -441.853
  C     -626.674     538.999    -440.364
  O     -626.269     537.747    -439.846
  C     -626.236     540.194    -439.512
  O     -624.921     540.029    -438.983
  C     -626.269     541.359    -440.511
  N     -628.123     545.068    -437.511
  C     -626.973     544.316    -437.361
  N     -626.246     544.552    -436.242
  N     -626.583     543.413    -438.216
  C     -627.441     543.230    -439.245
  C     -628.622     543.894    -439.494
  C     -629.022     544.941    -438.568
  O     -630.019     545.640    -438.670
  N     -629.245     543.423    -440.622
  C     -628.460     542.447    -441.038
  N     -627.342     542.288    -440.241
  O     -629.582     536.468    -442.113
  O     -631.145     538.433    -442.210
  H     -624.319     539.847    -439.721
  H     -631.334     538.003    -441.352
  H     -628.368     545.771    -436.833
  H     -628.639     541.833    -441.916
  H     -625.337     541.937    -440.471
  H     -626.911     540.321    -438.660
  H     -626.556     545.142    -435.492
  H     -627.765     538.988    -440.305
  H     -625.525     543.859    -436.018
  H     -625.284     539.127    -442.074
  H     -627.245     539.307    -443.762
  H     -627.088     537.750    -442.970
  P     -627.100     536.378    -439.929
  C     -624.881     535.198    -439.407
  O     -626.274     535.247    -439.145
  O     -626.939     535.917    -441.458
  O     -628.542     536.486    -439.555
  H     -627.605     535.243    -441.685
  H     -624.489     534.234    -439.072
  H     -624.372     535.996    -438.853
  H     -624.677     535.305    -440.479
  H     -630.891     537.328    -446.076
  H     -631.938     537.577    -444.700
  H     -630.980     536.121    -444.817

 3  4  5  6  7  8  9  10  11  12  23  26  30  31 0
 6-311+G(2d,p)
 ****
 33  35  36  37  38 0
 6-311+G(2d,p)
 ****
 1  2  13  14  15  16  17  18  19  20  21  22  24  25 0
 3-21G
 ****
 27  28  29  32  34  39  40  41  42  43  44  45  46  47  48  49 0
 3-21G
 ****


