%nproc=1
%NoSave
%Mem=1900MB
#P OB98/GEN NMR

erre ene a

0 1
  C       74.769    -178.649     170.415
  O       73.625    -178.570     169.574
  P       72.275    -177.956     170.184
  C       71.330    -180.165     171.161
  O       71.184    -179.136     170.193
  C       70.107    -181.080     171.181
  O       70.333    -182.150     172.143
  C       68.798    -180.389     171.574
  O       67.742    -181.037     170.852
  C       68.663    -180.716     173.050
  O       67.322    -180.589     173.512
  C       69.220    -182.138     173.063
  N       71.161    -185.960     175.854
  C       70.858    -185.871     174.541
  N       70.345    -184.818     173.872
  C       70.141    -183.780     174.701
  C       70.371    -183.736     176.066
  C       70.910    -184.894     176.652
  N       71.231    -184.983     177.986
  N       70.014    -182.502     176.577
  C       69.580    -181.817     175.540
  N       69.661    -182.539     174.384
  O       71.770    -176.988     169.012
  O       72.435    -177.217     171.468
  H       66.996    -179.700     173.264
  H       71.847    -176.055     169.296
  H       71.061    -186.759     173.947
  H       69.196    -180.808     175.577
  H       68.486    -182.875     172.714
  H       69.290    -180.036     173.637
  H       68.785    -179.309     171.378
  H       70.012    -181.554     170.194
  H       71.437    -179.702     172.148
  H       71.735    -185.795     178.302
  H       71.224    -184.137     178.549
  H       72.235    -180.743     170.949
  P       66.721    -180.091     170.050
  C       64.509    -180.755     171.234
  O       65.302    -180.830     170.063
  O       67.209    -180.228     168.531
  O       66.725    -178.668     170.507
  H       66.984    -179.418     168.038
  H       63.455    -180.749     170.950
  H       64.726    -179.853     171.816
  H       64.705    -181.636     171.858
  H       75.584    -179.077     169.869
  H       74.546    -179.262     171.263
  H       75.038    -177.667     170.745

 3  4  5  6  7  8  9  10  11  12  22  25  29  30  31  32 0
 6-311+G(2d,p)
 ****
 33  36  37 0
 6-311+G(2d,p)
 ****
 1  2  13  14  15  16  17  18  19  20  21  23  24  26 0
 3-21G
 ****
 27  28  34  35  38  39  40  41  42  43  44  45  46  47  48 0
 3-21G
 ****


