%nproc=1
%NoSave
%Mem=1900MB
#P OB98/GEN NMR

erre ene a

0 1
  C       37.664    -174.715     -63.468
  O       38.082    -173.410     -63.118
  H       38.220    -175.436     -62.864
  H       37.869    -174.906     -64.524
  H       36.595    -174.835     -63.267
  P       37.394    -172.201     -63.919
  C       36.836    -171.872     -66.430
  O       37.701    -172.463     -65.473
  C       37.121    -172.430     -67.822
  O       37.228    -173.870     -67.784
  C       36.058    -172.099     -68.862
  O       36.253    -170.802     -69.401
  C       36.292    -173.200     -69.886
  O       37.397    -172.886     -70.758
  C       36.625    -174.403     -68.993
  N       33.295    -177.745     -70.792
  C       34.381    -177.153     -71.402
  N       34.581    -177.458     -72.704
  N       35.195    -176.328     -70.798
  C       34.854    -176.091     -69.509
  C       33.812    -176.628     -68.787
  C       32.937    -177.564     -69.462
  O       31.996    -178.169     -68.961
  N       33.806    -176.157     -67.500
  C       34.817    -175.311     -67.455
  N       35.473    -175.223     -68.654
  O       38.325    -170.944     -63.570
  O       35.967    -171.938     -63.579
  H       37.351    -171.948     -71.006
  H       37.782    -170.134     -63.574
  H       32.715    -178.382     -71.306
  H       35.108    -174.739     -66.584
  H       37.361    -175.071     -69.458
  H       35.420    -173.346     -70.528
  H       33.828    -177.798     -73.289
  H       35.052    -172.205     -68.438
  H       35.361    -177.011     -73.165
  H       38.098    -172.041     -68.137
  H       36.995    -170.790     -66.436
  H       35.797    -172.079     -66.149
  P       35.167    -170.259     -70.453
  C       34.327    -171.052     -72.784
  O       35.296    -171.189     -71.753
  O       35.785    -168.864     -70.936
  O       33.790    -170.106     -69.903
  H       35.094    -168.324     -71.363
  H       34.550    -171.736     -73.576
  H       34.347    -170.051     -73.161
  H       33.355    -171.266     -72.391

 6  7  8  9  10  11  12  13  14  15  26  29  33  34 0
 6-311+G(2d,p)
 ****
 36  38  39  40  41 0
 6-311+G(2d,p)
 ****
 1  2  3  4  5  16  17  18  19  20  21  22  23  24  25 0
 3-21G
 ****
 27  28  30  31  32  35  37  42  43  44  45  46  47 0
 3-21G
 ****
 48  49 0
 3-21G
 ****


