%nproc=1
%NoSave
%Mem=1900MB
#P OB98/GEN NMR

erre ene a

0 1
  C       -8.674      17.124      -4.569
  O       -9.284      16.307      -3.583
  P      -10.732      15.661      -3.823
  C      -11.309      16.521      -1.470
  O      -11.320      15.406      -2.353
  C      -12.446      16.401      -0.460
  O      -13.700      16.567      -1.163
  C      -12.564      15.057       0.257
  O      -11.727      14.919       1.396
  C      -14.019      15.103       0.706
  O      -14.141      15.929       1.877
  C      -14.705      15.771      -0.488
  N      -18.337      12.234      -1.173
  C      -18.058      13.055      -0.136
  N      -17.060      13.957      -0.023
  C      -16.331      13.997      -1.149
  C      -16.497      13.228      -2.288
  C      -17.559      12.308      -2.277
  N      -17.855      11.489      -3.344
  N      -15.538      13.542      -3.232
  C      -14.819      14.492      -2.674
  N      -15.263      14.808      -1.420
  O      -10.741      14.488      -4.739
  O      -11.622      16.875      -4.360
  H      -13.965      16.847       1.597
  H      -12.433      16.532      -4.781
  H      -18.722      12.973       0.721
  H      -13.970      14.975      -3.135
  H      -15.510      16.451      -0.185
  H      -14.414      14.118       0.969
  H      -12.429      14.220      -0.439
  H      -12.354      17.221       0.263
  H      -11.449      17.431      -2.064
  H      -18.709      10.958      -3.297
  H      -17.380      11.659      -4.220
  H      -10.340      16.583      -0.969
  P      -10.395      14.034       1.223
  C       -9.956      12.943       3.560
  O       -9.705      14.007       2.670
  O       -9.514      14.453       0.100
  O      -10.975      12.550       1.064
  H      -11.405      12.186       1.855
  H       -9.275      13.029       4.412
  H       -9.786      11.979       3.075
  H      -10.984      12.995       3.928
  H       -7.719      17.454      -4.218
  H       -9.295      17.973      -4.763
  H       -8.548      16.561      -5.470

 3  4  5  6  7  8  9  10  11  12  22  25  29  30  31  32 0
 6-311+G(2d,p)
 ****
 33  36  37 0
 6-311+G(2d,p)
 ****
 1  2  13  14  15  16  17  18  19  20  21  23  24  26 0
 3-21G
 ****
 27  28  34  35  38  39  40  41  42  43  44  45  46  47  48 0
 3-21G
 ****


