%nproc=1
%NoSave
%Mem=1900MB
#P OB98/GEN NMR

erre ene a

0 1
  C      -51.147    -156.237    -261.037
  O      -50.328    -156.953    -260.117
  P      -50.136    -158.530    -260.326
  C      -49.221    -160.546    -258.880
  O      -49.395    -159.161    -259.059
  C      -48.628    -160.811    -257.477
  O      -47.224    -160.455    -257.453
  C      -49.317    -159.999    -256.379
  O      -50.463    -160.658    -255.873
  C      -48.201    -159.856    -255.356
  O      -48.047    -161.070    -254.606
  C      -46.973    -159.633    -256.274
  N      -46.682    -158.253    -256.729
  C      -46.197    -157.317    -255.814
  O      -45.980    -157.550    -254.630
  N      -45.934    -156.065    -256.320
  C      -45.944    -155.705    -257.636
  O      -45.646    -154.591    -258.040
  C      -46.326    -156.773    -258.575
  C      -46.681    -157.966    -258.087
  O      -49.056    -158.631    -261.497
  O      -51.404    -159.265    -260.664
  H      -48.787    -161.112    -253.966
  H      -49.447    -159.046    -262.287
  H      -45.644    -155.359    -255.657
  H      -46.302    -156.541    -259.633
  H      -46.963    -158.761    -258.775
  H      -46.064    -160.009    -255.806
  H      -48.431    -159.075    -254.631
  H      -49.569    -158.996    -256.744
  H      -48.718    -161.883    -257.262
  H      -48.554    -160.958    -259.642
  H      -50.181    -161.058    -258.988
  P      -51.828    -159.841    -255.673
  C      -54.306    -160.354    -256.080
  O      -53.011    -160.897    -255.955
  O      -51.934    -158.544    -256.409
  O      -51.923    -159.635    -254.084
  H      -51.566    -158.755    -253.821
  H      -54.987    -161.150    -256.428
  H      -54.319    -159.535    -256.811
  H      -54.654    -159.988    -255.110
  H      -51.173    -155.203    -260.762
  H      -52.139    -156.637    -261.017
  H      -50.744    -156.333    -262.023

 3  4  5  6  7  8  9  10  11  12  13  23  28  29  30  31  32 0
 6-311+G(2d,p)
 ****
 33  34 0
 6-311+G(2d,p)
 ****
 1  2  14  15  16  17  18  19  20  21  22  24  25  26  27 0
 3-21G
 ****
 35  36  37  38  39  40  41  42  43  44  45 0
 3-21G
 ****


