%nproc=1
%NoSave
%Mem=1900MB
#P OB98/GEN NMR

erre ene a

0 1
  C       37.630     -33.147    -263.814
  O       37.441     -33.420    -265.189
  H       38.509     -32.508    -263.701
  H       37.796     -34.078    -263.266
  H       36.759     -32.625    -263.409
  P       36.182     -34.336    -265.567
  C       37.146     -35.613    -267.625
  O       36.280     -34.595    -267.146
  C       36.958     -35.807    -269.136
  O       35.760     -36.608    -269.357
  C       36.764     -34.495    -269.911
  O       37.261     -34.692    -271.245
  C       35.248     -34.378    -269.946
  O       34.835     -33.415    -270.888
  C       34.889     -35.837    -270.215
  N       30.458     -37.323    -272.287
  C       31.689     -37.159    -272.818
  N       32.823     -36.774    -272.202
  C       32.606     -36.566    -270.892
  C       31.411     -36.701    -270.206
  C       30.293     -37.095    -270.963
  N       29.037     -37.252    -270.426
  N       31.579     -36.395    -268.868
  C       32.855     -36.084    -268.750
  N       33.511     -36.166    -269.947
  O       34.941     -33.338    -265.420
  O       36.012     -35.567    -264.739
  H       35.068     -33.696    -271.799
  H       34.539     -33.436    -264.536
  H       31.772     -37.365    -273.884
  H       33.346     -35.788    -267.832
  H       35.104     -36.124    -271.251
  H       34.861     -34.054    -268.975
  H       37.271     -33.641    -269.456
  H       37.802     -36.384    -269.530
  H       36.910     -36.545    -267.099
  H       38.184     -35.335    -267.421
  H       28.285     -37.524    -271.041
  H       28.896     -37.070    -269.444
  P       38.821     -35.020    -271.459
  C       39.252     -33.440    -273.498
  O       39.193     -34.768    -272.998
  O       38.838     -36.624    -271.373
  O       39.752     -34.428    -270.453
  H       39.708     -36.923    -271.052
  H       39.512     -33.461    -274.536
  H       39.991     -32.887    -272.956
  H       38.297     -32.971    -273.379

 6  7  8  9  10  11  12  13  14  15  25  28  32  33  34  35 0
 6-311+G(2d,p)
 ****
 36  37  40 0
 6-311+G(2d,p)
 ****
 1  2  3  4  5  16  17  18  19  20  21  22  23  24 0
 3-21G
 ****
 26  27  29  30  31  38  39 41  42  43  44  45  46  47  48 0
 3-21G
 ****


