%nproc=1
%NoSave
%Mem=1900MB
#P OB98/GEN NMR

erre ene a

0 1
  C     -202.028     -36.520     286.213
  O     -202.540     -35.611     287.165
  P     -201.584     -34.521     287.853
  C     -203.320     -32.616     287.845
  O     -202.090     -33.099     287.307
  C     -204.512     -33.228     287.108
  O     -204.518     -34.662     287.260
  C     -205.868     -32.751     287.615
  O     -206.154     -31.455     287.126
  C     -206.782     -33.846     287.078
  O     -207.126     -33.610     285.704
  C     -205.891     -35.104     287.209
  N     -206.245     -35.914     288.370
  C     -207.472     -36.587     288.293
  O     -208.197     -36.451     287.308
  N     -207.869     -37.357     289.360
  C     -207.117     -37.425     290.415
  N     -207.569     -38.197     291.444
  C     -205.831     -36.713     290.549
  C     -205.464     -35.978     289.499
  O     -200.121     -34.780     287.709
  O     -202.082     -34.518     289.376
  H     -207.691     -34.359     285.433
  H     -201.777     -35.327     289.858
  H     -205.249     -36.792     291.452
  H     -204.537     -35.417     289.511
  H     -205.982     -35.732     286.314
  H     -207.720     -33.907     287.639
  H     -205.879     -32.766     288.711
  H     -204.401     -33.001     286.039
  H     -208.465     -38.650     291.327
  H     -203.343     -31.529     287.729
  H     -207.082     -38.293     292.321
  H     -203.363     -32.851     288.916
  P     -206.303     -30.236     288.148
  C     -205.196     -28.474     286.646
  O     -205.118     -29.199     287.859
  O     -206.479     -30.618     289.583
  O     -207.598     -29.457     287.610
  H     -208.168     -29.220     288.369
  H     -204.549     -27.597     286.718
  H     -206.221     -28.145     286.449
  H     -204.851     -29.105     285.820
  H     -202.814     -37.161     285.873
  H     -201.256     -37.110     286.662
  H     -201.626     -35.978     285.383

 3  4  5  6  7  8  9  10  11  12  13  23  27  28  29  30  32 0
 6-311+G(2d,p)
 ****
 34  35 0
 6-311+G(2d,p)
 ****
 1  2  14  15  16  17  18  19  20  21  22  24  25  26 0
 3-21G
 ****
 31  33  36  37  38  39  40  41  42  43  44  45  46 0
 3-21G
 ****


