%nproc=1
%NoSave
%Mem=1900MB
#P OB98/GEN NMR

erre ene a

0 1
  C     -130.448    -274.383     154.606
  O     -131.240    -273.980     155.721
  P     -132.418    -274.945     156.231
  C     -131.455    -275.384     158.575
  O     -132.530    -274.828     157.831
  C     -131.451    -274.915     160.035
  O     -130.708    -273.674     160.180
  C     -132.850    -274.682     160.630
  O     -132.794    -275.072     162.005
  C     -133.008    -273.178     160.509
  O     -134.025    -272.663     161.354
  C     -131.579    -272.723     160.832
  N     -131.315    -271.361     160.398
  C     -131.797    -270.329     161.204
  O     -132.506    -270.584     162.176
  N     -131.487    -269.027     160.862
  C     -130.885    -268.787     159.739
  N     -130.576    -267.496     159.446
  C     -130.516    -269.848     158.774
  C     -130.739    -271.099     159.178
  O     -132.373    -276.341     155.706
  O     -133.744    -274.185     155.730
  H     -134.141    -271.705     161.167
  H     -134.411    -274.853     155.487
  H     -130.096    -269.595     157.814
  H     -130.502    -271.944     158.546
  H     -131.383    -272.786     161.911
  H     -133.267    -272.918     159.473
  H     -133.638    -275.251     160.129
  H     -130.925    -275.679     160.635
  H     -130.854    -266.775     160.103
  H     -130.508    -275.108     158.104
  H     -130.063    -267.233     158.614
  H     -131.508    -276.482     158.513
  P     -133.460    -276.470     162.448
  C     -131.433    -277.288     163.855
  O     -132.793    -276.918     163.834
  O     -132.780    -277.496     161.410
  O     -134.951    -276.548     162.349
  H     -133.367    -278.265     161.302
  H     -131.081    -277.291     164.891
  H     -130.818    -276.587     163.284
  H     -131.316    -278.301     163.446
  H     -129.715    -273.632     154.399
  H     -131.077    -274.513     153.750
  H     -129.958    -275.307     154.832

 3  4  5  6  7  8  9  10  11  12  13  23  27  28  29  30  32 0
 6-311+G(2d,p)
 ****
 34  35 0
 6-311+G(2d,p)
 ****
 1  2  14  15  16  17  18  19  20  21  22  24  25  26 0
 3-21G
 ****
 31  33  36  37  38  39  40  41  42  43  44  45  46 0
 3-21G
 ****


