%nproc=1
%NoSave
%Mem=1900MB
#P OB98/GEN NMR

erre ene a

0 1
  C     -138.090     -21.302    -165.327
  O     -138.271     -20.375    -164.250
  P     -137.181     -19.207    -164.091
  C     -137.108     -17.654    -166.176
  O     -137.687     -17.924    -164.908
  C     -137.135     -16.146    -166.463
  O     -138.492     -15.660    -166.549
  C     -136.486     -15.321    -165.364
  O     -135.074     -15.372    -165.478
  C     -137.073     -13.936    -165.614
  O     -136.263     -13.171    -166.525
  C     -138.452     -14.253    -166.237
  N     -139.556     -13.874    -165.376
  C     -139.555     -12.542    -164.934
  O     -138.643     -11.776    -165.261
  N     -140.574     -12.121    -164.115
  C     -141.492     -12.960    -163.746
  N     -142.474     -12.488    -162.927
  C     -141.515     -14.377    -164.168
  C     -140.525     -14.764    -164.970
  O     -135.947     -19.738    -164.960
  O     -136.784     -18.945    -162.677
  H     -135.461     -12.923    -166.016
  H     -135.105     -19.441    -164.572
  H     -142.300     -15.039    -163.831
  H     -140.460     -15.784    -165.328
  H     -138.574     -13.720    -167.195
  H     -137.141     -13.359    -164.692
  H     -136.805     -15.684    -164.378
  H     -136.633     -15.964    -167.422
  H     -142.428     -11.509    -162.659
  H     -137.653     -18.189    -166.962
  H     -143.232     -13.054    -162.577
  H     -136.081     -18.036    -166.193
  P     -134.284     -16.393    -164.523
  C     -133.159     -18.650    -164.989
  O     -134.185     -17.754    -165.368
  O     -135.401     -16.759    -163.433
  O     -133.023     -15.905    -163.890
  H     -135.011     -17.314    -162.730
  H     -133.322     -19.606    -165.494
  H     -133.162     -18.817    -163.908
  H     -132.183     -18.257    -165.302
  H     -138.882     -22.021    -165.315
  H     -137.151     -21.803    -165.213
  H     -138.101     -20.774    -166.258

 3  4  5  6  7  8  9  10  11  12  13  21  23  27  28  29  30  32 0
 6-311+G(2d,p)
 ****
 34  35 0
 6-311+G(2d,p)
 ****
 1  2  14  15  16  17  18  19  20  22  24  25  26 0
 3-21G
 ****
 31  33  36  37  38  39  40  41  42  43  44  45  46 0
 3-21G
 ****


