%nproc=1
%NoSave
%Mem=1900MB
#P OB98/GEN NMR

erre ene a

0 1
  C     -148.730    -271.812     813.703
  O     -148.653    -272.255     812.364
  H     -147.733    -271.512     814.036
  H     -149.087    -272.614     814.360
  H     -149.401    -270.954     813.784
  P     -149.961    -272.898     811.699
  C     -148.641    -274.338     809.995
  O     -149.501    -274.324     811.132
  C     -147.608    -275.452     810.127
  O     -146.695    -275.166     811.208
  C     -148.230    -276.810     810.453
  O     -148.834    -277.373     809.310
  C     -147.024    -277.548     811.000
  O     -146.192    -278.036     809.939
  C     -146.302    -276.429     811.800
  N     -146.610    -276.465     813.218
  C     -146.136    -277.579     813.920
  O     -145.500    -278.454     813.341
  N     -146.425    -277.671     815.265
  C     -147.110    -276.745     815.853
  N     -147.359    -276.904     817.180
  C     -147.615    -275.544     815.158
  C     -147.341    -275.478     813.851
  O     -150.705    -272.051     810.706
  O     -150.871    -273.287     812.961
  H     -146.800    -278.444     809.283
  H     -151.458    -272.536     813.202
  H     -148.170    -274.793     815.689
  H     -147.666    -274.627     813.266
  H     -145.215    -276.513     811.677
  H     -147.318    -278.403     811.613
  H     -148.959    -276.697     811.266
  H     -147.027    -275.497     809.198
  H     -147.000    -277.751     817.627
  H     -148.139    -273.360     809.959
  H     -147.800    -276.199     817.763
  H     -149.218    -274.461     809.070
  P     -150.436    -277.414     809.165
  C     -150.257    -278.996     807.133
  O     -150.760    -278.828     808.450
  O     -151.043    -276.220     808.525
  O     -150.920    -277.657     810.677
  H     -150.834    -276.834     811.214
  H     -150.532    -279.963     806.767
  H     -149.191    -278.910     807.145
  H     -150.669    -278.242     806.495

 6  7  8  9  10  11  12  13  14  15  16  26  30  31  32  33  35 0
 6-311+G(2d,p)
 ****
 37  38 0
 6-311+G(2d,p)
 ****
 1  2  3  4  5  17  18  19  20  21  22  23  24  25 0
 3-21G
 ****
 27  28  29  34  36  39  40  41  42  43  44  45  46 0
 3-21G
 ****


