%nproc=1
%NoSave
%Mem=1900MB
#P OB98/GEN NMR

erre ene a

0 1
  C     -279.935     528.196     166.986
  O     -278.636     528.044     166.427
  P     -278.216     529.047     165.248
  C     -275.790     528.206     165.630
  O     -276.813     528.495     164.692
  C     -274.430     528.166     164.949
  O     -274.321     529.236     163.988
  C     -273.245     528.337     165.889
  O     -272.889     527.129     166.538
  C     -272.153     528.749     164.905
  O     -271.652     527.590     164.227
  C     -272.926     529.637     163.932
  N     -270.162     533.874     163.194
  C     -269.965     532.596     162.805
  N     -270.740     531.520     163.056
  C     -271.804     531.860     163.808
  C     -272.106     533.118     164.304
  C     -271.242     534.159     163.956
  N     -271.459     535.469     164.322
  N     -273.275     533.073     165.035
  C     -273.670     531.819     164.980
  N     -272.818     531.046     164.242
  O     -277.805     530.379     166.033
  O     -279.276     529.303     164.226
  H     -270.989     527.897     163.576
  H     -277.881     531.155     165.442
  H     -269.071     532.409     162.225
  H     -274.566     531.430     165.449
  H     -272.596     529.498     162.890
  H     -271.304     529.229     165.391
  H     -273.417     529.155     166.602
  H     -274.346     527.212     164.401
  H     -275.989     527.233     166.093
  H     -270.893     536.185     163.886
  H     -272.358     535.716     164.715
  H     -275.803     528.969     166.420
  P     -272.954     527.127     168.147
  C     -274.116     524.815     167.888
  O     -273.141     525.591     168.559
  O     -274.384     527.786     168.448
  O     -271.841     527.863     168.808
  H     -274.384     528.203     169.332
  H     -273.900     523.759     168.057
  H     -274.098     525.006     166.813
  H     -275.112     525.042     168.288
  H     -280.080     527.467     167.756
  H     -280.671     528.058     166.221
  H     -280.032     529.177     167.401

 3  4  5  6  7  8  9  10  11  12  22  25  29  30  31  32 0
 6-311+G(2d,p)
 ****
 33  36  37 0
 6-311+G(2d,p)
 ****
 1  2  13  14  15  16  17  18  19  20  21  23  24  26 0
 3-21G
 ****
 27  28  34  35  38  39  40  41  42  43  44  45  46  47  48 0
 3-21G
 ****


