%nproc=1
%NoSave
%Mem=1900MB
#P OB98/GEN NMR

erre ene a

0 1
  C      781.121     414.012     115.714
  O      779.961     413.859     116.502
  H      781.805     413.183     115.931
  H      781.623     414.953     115.955
  H      780.860     413.987     114.653
  P      778.870     415.027     116.417
  C      779.068     417.549     117.025
  O      779.367     416.205     117.385
  C      780.099     418.488     117.650
  O      781.424     418.146     117.177
  C      779.899     419.952     117.291
  O      778.880     420.573     118.049
  C      781.279     420.510     117.612
  O      781.411     420.836     118.999
  C      782.213     419.348     117.218
  N      782.895     419.609     115.951
  C      784.019     420.437     116.024
  O      784.426     420.923     117.076
  N      784.634     420.709     114.836
  C      784.218     420.297     113.603
  O      784.783     420.629     112.560
  C      783.016     419.438     113.585
  C      782.414     419.145     114.745
  O      777.611     414.410     117.192
  O      778.515     415.460     115.030
  H      776.916     414.164     116.550
  H      782.260     421.313     119.088
  H      785.446     421.309     114.864
  H      782.662     419.095     112.617
  H      781.522     418.526     114.748
  H      782.979     419.202     117.987
  H      781.468     421.424     117.046
  H      779.718     420.056     116.212
  H      780.080     418.353     118.743
  H      778.075     417.816     117.395
  H      779.072     417.634     115.931
  P      778.195     421.891     117.447
  C      779.182     424.161     116.560
  O      779.384     422.954     117.279
  O      777.366     422.403     118.719
  O      777.383     421.631     116.224
  H      777.775     422.113     119.557
  H      780.087     424.732     116.560
  H      778.403     424.727     117.026
  H      778.904     423.934     115.552

 6  7  8  9  10  11  12  13  14  15  16  27  31  32  33  34  35 0
 6-311+G(2d,p)
 ****
 36  37 0
 6-311+G(2d,p)
 ****
 1  2  3  4  5  17  18  19  20  21  22  23  24  25 0
 3-21G
 ****
 26  28  29  30  38  39  40  41  42  43  44  45 0
 3-21G
 ****


