%nproc=1
%NoSave
%Mem=1900MB
#P OB98/GEN NMR

erre ene a

0 1
  C        7.445    -192.828       6.588
  O        8.085    -194.085       6.493
  H        7.461    -192.474       7.621
  H        7.982    -192.110       5.962
  H        6.412    -192.902       6.235
  P        7.468    -195.278       7.371
  C        8.839    -194.287       9.349
  O        8.472    -195.446       8.614
  C       10.081    -194.588      10.178
  O       10.443    -193.434      10.970
  C        9.894    -195.731      11.173
  O       10.053    -197.005      10.573
  C       11.017    -195.438      12.152
  O       12.275    -195.854      11.590
  C       10.956    -193.906      12.247
  N       10.823    -191.974      16.986
  C       11.852    -192.298      16.172
  N       11.803    -192.787      14.916
  C       10.532    -192.926      14.509
  C        9.382    -192.632      15.224
  C        9.560    -192.138      16.527
  N        8.515    -191.837      17.372
  N        8.257    -192.930      14.477
  C        8.724    -193.375      13.328
  N       10.092    -193.423      13.311
  O        7.759    -196.587       6.496
  O        6.032    -195.136       7.750
  H       12.310    -195.505      10.680
  H        7.233    -197.340       6.825
  H       12.844    -192.147      16.587
  H        8.117    -193.685      12.488
  H       11.942    -193.453      12.397
  H       10.899    -195.969      13.101
  H        8.935    -195.655      11.696
  H       10.913    -194.795       9.493
  H        8.013    -194.006      10.010
  H        8.742    -191.633      18.331
  H        7.578    -192.093      17.094
  H        9.039    -193.465       8.655
  P        9.144    -198.206      11.134
  C       11.176    -199.387      12.243
  O       10.117    -199.473      11.296
  O        8.242    -198.593       9.871
  O        8.322    -197.856      12.332
  H        7.363    -198.908      10.154
  H       11.734    -200.300      12.238
  H       10.769    -199.223      13.219
  H       11.821    -198.573      11.984

 6  7  8  9  10  11  12  13  14  15  25  28  32  33  34  35 0
 6-311+G(2d,p)
 ****
 36  39  40 0
 6-311+G(2d,p)
 ****
 1  2  3  4  5  16  17  18  19  20  21  22  23  24 0
 3-21G
 ****
 26  27  29  30  31  37  38  41  42  43  44  45  46  47 0
 3-21G
 ****
 48 0
 3-21G
 ****


