%nproc=1
%NoSave
%Mem=1900MB
#P OB98/GEN NMR

erre ene a

0 1
  C      -29.272    -129.688     245.281
  O      -29.491    -128.296     245.209
  H      -28.655    -129.898     246.158
  H      -28.746    -130.040     244.392
  H      -30.223    -130.219     245.388
  P      -30.322    -127.709     243.970
  C      -28.697    -126.188     242.663
  O      -29.275    -127.485     242.775
  C      -27.603    -126.189     241.588
  O      -28.246    -126.371     240.303
  C      -26.815    -124.871     241.553
  O      -25.406    -125.065     241.632
  C      -27.374    -124.167     240.322
  O      -26.486    -123.245     239.724
  C      -27.799    -125.327     239.419
  N      -28.849    -124.978     238.464
  C      -28.490    -124.177     237.383
  O      -27.358    -123.754     237.164
  N      -29.504    -123.864     236.515
  C      -30.806    -124.249     236.628
  O      -31.670    -123.940     235.815
  C      -31.130    -125.069     237.805
  C      -30.153    -125.389     238.655
  O      -31.185    -126.530     244.274
  O      -31.188    -128.955     243.459
  H      -26.952    -122.852     238.957
  H      -32.118    -128.839     243.732
  H      -29.253    -123.299     235.720
  H      -32.157    -125.382     237.931
  H      -30.356    -125.996     239.534
  H      -26.949    -125.704     238.850
  H      -28.266    -123.604     240.622
  H      -27.034    -124.263     242.439
  H      -26.945    -127.049     241.755
  H      -28.274    -125.924     243.636
  H      -29.474    -125.461     242.401
  P      -24.535    -124.939     242.961
  C      -23.481    -122.536     242.775
  O      -24.447    -123.395     243.369
  O      -23.261    -125.713     242.984
  O      -25.494    -125.553     244.104
  H      -24.902    -125.968     244.763
  H      -23.584    -121.550     243.178
  H      -23.633    -122.506     241.716
  H      -22.499    -122.906     242.984

 6  7  8  9  10  11  12  13  14  15  16  26  31  32  33  34  35 0
 6-311+G(2d,p)
 ****
 36  37 0
 6-311+G(2d,p)
 ****
 1  2  3  4  5  17  18  19  20  21  22  23  24  25 0
 3-21G
 ****
 27  28  29  30  38  39  40  41  42  43  44  45 0
 3-21G
 ****


