%nproc=1
%NoSave
%Mem=1900MB
#P OB98/GEN NMR

erre ene a

0 1
  C      164.968     596.476     -45.907
  O      165.960     595.659     -46.500
  P      167.175     595.161     -45.565
  C      169.141     596.025     -47.031
  O      168.418     594.901     -46.542
  C      169.970     595.627     -48.252
  O      170.952     594.631     -47.906
  C      169.154     595.007     -49.380
  O      168.503     595.983     -50.177
  C      170.244     594.310     -50.180
  O      170.929     595.261     -51.015
  C      171.180     593.802     -49.070
  N      172.740     589.042     -49.773
  C      173.346     590.225     -50.131
  N      174.500     590.131     -50.818
  N      172.867     591.408     -49.828
  C      171.697     591.350     -49.139
  C      171.001     590.230     -48.730
  C      171.542     588.931     -49.076
  O      171.025     587.854     -48.840
  N      169.861     590.571     -48.052
  C      169.865     591.891     -48.047
  N      170.935     592.411     -48.731
  O      166.727     593.684     -45.137
  O      167.447     596.029     -44.381
  H      171.269     595.960     -50.416
  H      167.244     593.388     -44.363
  H      173.151     588.156     -50.029
  H      169.108     592.509     -47.577
  H      172.230     593.903     -49.346
  H      169.854     593.530     -50.841
  H      174.894     589.255     -51.132
  H      168.442     594.261     -48.999
  H      174.938     590.988     -51.145
  H      170.500     596.523     -48.610
  H      169.808     596.396     -46.243
  H      168.440     596.821     -47.288
  P      166.918     596.132     -49.991
  C      166.401     595.107     -52.322
  O      166.318     596.239     -51.472
  O      166.760     597.620     -49.410
  O      166.301     595.108     -49.100
  H      165.947     597.693     -48.877
  H      165.722     595.259     -53.173
  H      166.107     594.193     -51.793
  H      167.425     594.996     -52.695
  H      164.230     596.729     -46.639
  H      165.420     597.371     -45.532
  H      164.504     595.946     -45.101

 3  4  5  6  7  8  9  10  11  12  23  26  30  31 0
 6-311+G(2d,p)
 ****
 33  35  36  37  38 0
 6-311+G(2d,p)
 ****
 1  2  13  14  15  16  17  18  19  20  21  22  24  25 0
 3-21G
 ****
 27  28  29  32  34  39  40  41  42  43  44  45  46  47  48  49 0
 3-21G
 ****


