%nproc=1
%NoSave
%Mem=1900MB
#P OB98/GEN NMR

erre ene a

0 1
  C      531.208     -84.483     112.731
  O      532.414     -84.039     113.365
  P      532.479     -83.709     114.934
  C      532.028     -85.167     117.011
  O      532.675     -85.084     115.741
  C      532.016     -86.608     117.547
  O      531.299     -87.479     116.655
  C      533.398     -87.227     117.723
  O      534.011     -86.750     118.911
  C      533.063     -88.711     117.718
  O      532.594     -89.126     119.016
  C      531.928     -88.778     116.693
  N      531.137     -91.982     112.786
  C      530.495     -91.815     113.964
  N      530.772     -90.944     114.956
  C      531.817     -90.167     114.626
  C      532.569     -90.223     113.465
  C      532.196     -91.186     112.513
  N      532.862     -91.361     111.318
  N      533.586     -89.288     113.496
  C      533.431     -88.664     114.650
  N      532.375     -89.161     115.367
  O      531.353     -82.862     115.428
  O      533.881     -82.960     115.135
  H      532.281     -90.043     118.936
  H      533.825     -82.356     115.900
  H      529.646     -92.478     114.131
  H      534.055     -87.850     115.007
  H      531.150     -89.489     116.993
  H      533.925     -89.339     117.470
  H      534.029     -86.989     116.858
  H      531.474     -86.599     118.503
  H      530.993     -84.816     116.896
  H      532.553     -92.100     110.705
  H      533.682     -90.806     111.130
  H      532.551     -84.512     117.711
  P      535.509     -86.183     118.871
  C      535.952     -84.694     116.828
  O      535.458     -84.750     118.154
  O      536.543     -87.120     118.345
  O      535.805     -85.795     120.401
  H      536.761     -85.889     120.579
  H      537.044     -84.635     116.854
  H      535.561     -83.794     116.348
  H      535.635     -85.564     116.255
  H      531.391     -84.643     111.689
  H      530.448     -83.739     112.850
  H      530.885     -85.398     113.181

 3  4  5  6  7  8  9  10  11  12  22  25  29  30  31  32 0
 6-311+G(2d,p)
 ****
 33  36  37 0
 6-311+G(2d,p)
 ****
 1  2  13  14  15  16  17  18  19  20  21  23  24  26 0
 3-21G
 ****
 27  28  34  35  38  39  40  41  42  43  44  45  46  47  48 0
 3-21G
 ****


