%nproc=1
%NoSave
%Mem=1900MB
#P OB98/GEN NMR

erre ene a

0 1
  C      -50.612    -121.046     106.691
  O      -52.019    -120.879     106.649
  P      -52.899    -121.641     107.757
  C      -53.208    -123.843     106.400
  O      -52.651    -123.211     107.541
  C      -53.839    -125.184     106.784
  O      -52.777    -126.146     107.011
  C      -54.698    -125.149     108.052
  O      -55.745    -126.112     107.875
  C      -53.742    -125.631     109.127
  O      -54.414    -126.138     110.275
  C      -52.940    -126.668     108.348
  N      -50.499    -128.866     112.193
  C      -51.857    -128.738     111.964
  N      -52.673    -129.334     112.859
  N      -52.366    -128.089     110.950
  C      -51.425    -127.561     110.131
  C      -50.058    -127.585     110.272
  C      -49.508    -128.339     111.376
  O      -48.314    -128.550     111.568
  N      -49.439    -126.861     109.289
  C      -50.426    -126.468     108.510
  N      -51.645    -126.906     108.954
  O      -54.394    -121.419     107.238
  O      -52.705    -121.181     109.167
  H      -53.737    -126.495     110.885
  H      -54.802    -120.638     107.661
  H      -50.166    -129.394     112.981
  H      -50.320    -125.874     107.616
  H      -53.457    -127.633     108.278
  H      -53.102    -124.801     109.452
  H      -52.350    -129.876     113.645
  H      -55.119    -124.164     108.271
  H      -53.672    -129.283     112.697
  H      -54.429    -125.543     105.932
  H      -52.410    -124.030     105.674
  H      -53.948    -123.183     105.938
  P      -57.253    -125.638     108.140
  C      -57.250    -126.628     110.532
  O      -57.442    -125.487     109.721
  O      -58.105    -126.950     107.792
  O      -57.701    -124.478     107.311
  H      -58.972    -126.690     107.429
  H      -57.018    -126.301     111.549
  H      -56.427    -127.249     110.166
  H      -58.169    -127.218     110.553
  H      -50.162    -120.484     105.899
  H      -50.372    -122.082     106.574
  H      -50.239    -120.698     107.632

 3  4  5  6  7  8  9  10  11  12  23  26  30  31 0
 6-311+G(2d,p)
 ****
 33  35  36  37  38 0
 6-311+G(2d,p)
 ****
 1  2  13  14  15  16  17  18  19  20  21  22  24  25 0
 3-21G
 ****
 27  28  29  32  34  39  40  41  42  43  44  45  46  47  48  49 0
 3-21G
 ****


