%nproc=1
%NoSave
%Mem=1900MB
#P OB98/GEN NMR

erre ene a

0 1
  C      692.015     127.902     309.008
  O      692.949     127.125     308.282
  H      692.487     128.858     309.276
  H      691.732     127.385     309.928
  H      691.128     128.104     308.400
  P      692.409     125.762     307.645
  C      693.853     124.482     309.430
  O      692.612     124.609     308.743
  C      693.617     124.198     310.905
  O      692.753     125.191     311.497
  C      692.879     122.888     311.169
  O      693.683     121.755     310.936
  C      692.505     123.076     312.640
  O      693.624     122.808     313.503
  C      692.138     124.583     312.668
  N      690.693     124.805     312.695
  C      690.163     125.185     313.933
  O      690.908     125.327     314.914
  N      688.810     125.374     314.036
  C      688.049     125.218     312.997
  N      686.714     125.412     313.168
  C      688.569     124.846     311.662
  C      689.887     124.640     311.593
  O      693.534     125.415     306.557
  O      691.019     125.820     307.101
  H      693.664     121.841     313.596
  H      694.435     125.392     306.922
  H      687.900     124.728     310.833
  H      690.356     124.368     310.646
  H      692.576     125.064     313.552
  H      691.702     122.404     312.944
  H      691.951     122.841     310.590
  H      694.582     124.229     311.427
  H      686.389     125.648     314.104
  H      694.463     125.377     309.297
  H      686.029     125.278     312.450
  H      694.397     123.647     308.970
  P      693.279     120.690     309.795
  C      693.621     118.971     311.687
  O      692.813     119.367     310.572
  O      694.309     120.473     308.739
  O      691.888     121.262     309.238
  H      691.182     121.335     309.909
  H      693.216     118.082     312.123
  H      693.631     119.754     312.416
  H      694.620     118.781     311.354

 6  7  8  9  10  11  12  13  14  15  16  26  30  31  32  33  35 0
 6-311+G(2d,p)
 ****
 37  38 0
 6-311+G(2d,p)
 ****
 1  2  3  4  5  17  18  19  20  21  22  23  24  25 0
 3-21G
 ****
 27  28  29  34  36  39  40  41  42  43  44  45  46 0
 3-21G
 ****


