%nproc=1
%NoSave
%Mem=1900MB
#P OB98/GEN NMR

erre ene a

0 1
  C     -139.343      71.593     142.193
  O     -138.528      72.503     141.447
  P     -138.339      72.234     139.877
  C     -136.840      70.718     138.387
  O     -137.260      71.061     139.697
  C     -135.654      69.746     138.443
  O     -134.438      70.414     138.856
  C     -135.853      68.597     139.423
  O     -136.611      67.541     138.849
  C     -134.416      68.141     139.633
  O     -133.997      67.311     138.531
  C     -133.647      69.473     139.626
  N     -130.141      70.406     143.156
  C     -130.011      69.863     141.893
  N     -128.758      69.526     141.509
  N     -131.015      69.667     141.077
  C     -132.205      70.065     141.587
  C     -132.464      70.617     142.824
  C     -131.345      70.814     143.720
  O     -131.402      71.278     144.858
  N     -133.798      70.889     142.979
  C     -134.346      70.521     141.838
  N     -133.422      70.001     140.962
  O     -137.537      73.531     139.387
  O     -139.619      72.059     139.127
  H     -133.042      67.147     138.653
  H     -137.730      73.709     138.448
  H     -129.336      70.529     143.745
  H     -135.398      70.615     141.596
  H     -132.666      69.389     139.143
  H     -134.296      67.543     140.542
  H     -127.934      69.692     142.066
  H     -136.280      68.952     140.371
  H     -128.640      69.154     140.572
  H     -135.497      69.338     137.435
  H     -136.556      71.617     137.829
  H     -137.685      70.284     137.844
  P     -138.120      67.344     139.361
  C     -139.206      66.676     141.626
  O     -138.013      66.909     140.897
  O     -138.578      66.007     138.607
  O     -139.036      68.487     139.064
  H     -139.536      66.038     138.427
  H     -138.946      66.238     142.592
  H     -139.863      65.989     141.089
  H     -139.727      67.625     141.801
  H     -139.374      71.900     143.218
  H     -138.929      70.608     142.128
  H     -140.335      71.590     141.791

 3  4  5  6  7  8  9  10  11  12  23  26  30  31 0
 6-311+G(2d,p)
 ****
 33  35  36  37  38 0
 6-311+G(2d,p)
 ****
 1  2  13  14  15  16  17  18  19  20  21  22  24  25 0
 3-21G
 ****
 27  28  29  32  34  39  40  41  42  43  44  45  46  47  48  49 0
 3-21G
 ****


