%nproc=1
%NoSave
%Mem=1900MB
#P OB98/GEN NMR

erre ene a

0 1
  C       68.533      20.514      23.912
  O       69.806      21.064      24.187
  H       68.129      20.088      24.834
  H       68.609      19.719      23.165
  H       67.851      21.293      23.558
  P       70.648      21.683      22.975
  C       72.002      19.509      22.608
  O       71.088      20.448      22.053
  C       72.470      18.521      21.543
  O       71.354      17.761      21.039
  C       73.110      19.175      20.324
  O       74.417      19.621      20.625
  C       73.023      18.039      19.319
  O       74.055      17.067      19.549
  C       71.631      17.446      19.653
  N       70.565      17.939      18.787
  C       70.285      17.165      17.655
  O       70.931      16.143      17.427
  N       69.291      17.587      16.805
  C       68.609      18.653      17.080
  N       67.637      19.012      16.200
  C       68.850      19.477      18.280
  C       69.839      19.074      19.075
  O       71.769      22.604      23.351
  O       69.549      22.428      22.081
  H       73.882      16.693      20.436
  H       69.489      23.370      22.328
  H       68.251      20.354      18.475
  H       70.081      19.624      19.979
  H       71.652      16.352      19.576
  H       73.132      18.385      18.291
  H       72.486      20.002      19.965
  H       73.163      17.814      22.018
  H       67.495      18.403      15.401
  H       71.473      18.979      23.407
  H       66.944      19.721      16.391
  H       72.864      20.023      23.049
  P       74.802      21.177      20.589
  C       76.079      20.962      18.368
  O       74.973      21.548      19.036
  O       75.949      21.567      21.458
  O       73.434      21.914      20.971
  H       73.273      21.856      21.946
  H       76.088      21.280      17.347
  H       75.996      19.896      18.408
  H       76.987      21.268      18.845

 6  7  8  9  10  11  12  13  14  15  16  26  30  31  32  33  35 0
 6-311+G(2d,p)
 ****
 37  38 0
 6-311+G(2d,p)
 ****
 1  2  3  4  5  17  18  19  20  21  22  23  24  25 0
 3-21G
 ****
 27  28  29  34  36  39  40  41  42  43  44  45  46 0
 3-21G
 ****


