%nproc=1
%NoSave
%Mem=1900MB
#P OB98/GEN NMR

erre ene a

0 1
  C       -2.296     -65.856    -126.895
  O       -2.001     -64.473    -126.887
  P       -0.949     -63.843    -127.913
  C        0.019     -62.451    -125.969
  O        0.309     -63.347    -127.040
  C        1.197     -61.496    -125.742
  O        0.741     -60.379    -124.913
  C        2.383     -62.168    -125.021
  O        3.641     -62.019    -125.683
  C        2.306     -61.575    -123.622
  O        3.521     -61.650    -122.898
  C        1.757     -60.172    -123.909
  N        1.233     -59.519    -122.712
  C        2.004     -58.502    -122.154
  O        3.081     -58.122    -122.603
  N        1.531     -57.959    -120.992
  C        0.448     -58.394    -120.284
  O        0.133     -57.924    -119.200
  C       -0.309     -59.498    -120.908
  C        0.094     -59.987    -122.084
  O       -1.497     -62.809    -128.838
  O       -0.347     -65.129    -128.655
  H        4.168     -61.067    -123.336
  H        0.088     -65.775    -128.071
  H        2.080     -57.225    -120.576
  H       -1.166     -59.870    -120.367
  H       -0.441     -60.799    -122.565
  H        2.522     -59.524    -124.350
  H        1.562     -62.148    -123.056
  H        2.246     -63.256    -124.959
  H        1.500     -61.102    -126.716
  H       -0.151     -63.033    -125.063
  H       -0.903     -61.900    -126.185
  P        4.481     -63.212    -126.346
  C        5.822     -63.731    -124.180
  O        4.945     -64.207    -125.180
  O        5.566     -62.784    -127.280
  O        3.367     -64.061    -127.128
  H        3.772     -64.501    -127.898
  H        6.412     -64.570    -123.804
  H        5.236     -63.322    -123.350
  H        6.501     -62.968    -124.565
  H       -3.019     -66.071    -126.136
  H       -1.402     -66.412    -126.704
  H       -2.690     -66.131    -127.851

 3  4  5  6  7  8  9  10  11  12  13  23  28  29  30  31  32 0
 6-311+G(2d,p)
 ****
 33  34 0
 6-311+G(2d,p)
 ****
 1  2  14  15  16  17  18  19  20  21  22  24  25  26  27 0
 3-21G
 ****
 35  36  37  38  39  40  41  42  43  44  45 0
 3-21G
 ****


