%nproc=1
%NoSave
%Mem=1900MB
#P OB98/GEN NMR

erre ene a

0 1
  C      -82.433      12.323     -91.803
  O      -83.702      11.839     -91.411
  H      -82.559      13.137     -92.520
  H      -81.917      12.710     -90.920
  H      -81.831      11.525     -92.242
  P      -84.513      10.957     -92.477
  C      -86.727      12.311     -92.451
  O      -86.067      11.104     -92.097
  C      -87.190      13.053     -91.198
  O      -86.016      13.514     -90.472
  C      -88.078      14.276     -91.480
  O      -89.098      14.336     -90.478
  C      -87.128      15.446     -91.289
  O      -87.802      16.648     -90.936
  C      -86.213      14.911     -90.192
  N      -84.004      19.254     -88.740
  C      -85.177      18.681     -88.399
  N      -85.668      17.489     -88.794
  C      -84.781      16.842     -89.569
  C      -83.545      17.294     -89.997
  C      -83.167      18.575     -89.560
  N      -82.004      19.196     -89.955
  N      -82.955      16.365     -90.831
  C      -83.830      15.385     -90.926
  N      -84.951      15.628     -90.183
  O      -84.157       9.461     -92.027
  O      -84.175      11.206     -93.908
  H      -87.138      17.342     -90.756
  H      -83.335       9.175     -92.465
  H      -85.811      19.259     -87.731
  H      -83.719      14.499     -91.536
  H      -86.654      15.003     -89.191
  H      -86.573      15.621     -92.217
  H      -88.537      14.269     -92.475
  H      -87.711      12.342     -90.546
  H      -87.602      12.074     -93.066
  H      -81.867      20.157     -89.679
  H      -81.424      18.752     -90.651
  H      -86.046      12.938     -93.035
  P      -90.546      14.855     -90.929
  C      -91.152      16.281     -88.835
  O      -91.423      15.121     -89.616
  O      -91.222      13.551     -91.566
  O      -90.507      15.987     -91.904
  H      -91.820      13.801     -92.292
  H      -91.819      16.312     -87.999
  H      -91.291      17.156     -89.435
  H      -90.142      16.246     -88.484

 6  7  8  9  10  11  12  13  14  15  25  28  32  33  34  35 0
 6-311+G(2d,p)
 ****
 36  39  40 0
 6-311+G(2d,p)
 ****
 1  2  3  4  5  16  17  18  19  20  21  22  23  24 0
 3-21G
 ****
 26  27  29  30  31  37  38  41  42  43  44  45  46  47 0
 3-21G
 ****
 48 0
 3-21G
 ****


