%nproc=1
%NoSave
%Mem=1900MB
#P OB98/GEN NMR

erre ene a

0 1
  C     -129.982    -457.569    -401.815
  O     -130.141    -456.753    -400.674
  P     -128.945    -455.809    -400.169
  C     -129.361    -456.353    -397.679
  O     -129.367    -455.343    -398.688
  C     -129.276    -455.724    -396.287
  O     -128.044    -455.000    -396.129
  C     -130.391    -454.727    -395.987
  O     -131.598    -455.400    -395.686
  C     -129.784    -453.954    -394.822
  O     -129.974    -454.649    -393.581
  C     -128.288    -453.916    -395.205
  N     -127.888    -452.628    -395.760
  C     -128.094    -451.516    -394.934
  O     -128.609    -451.648    -393.826
  N     -127.746    -450.273    -395.410
  C     -127.263    -450.154    -396.606
  N     -126.950    -448.894    -397.020
  C     -127.060    -451.296    -397.519
  C     -127.395    -452.490    -397.036
  O     -128.557    -454.712    -401.101
  O     -127.758    -456.851    -399.888
  H     -129.597    -455.543    -393.708
  H     -127.357    -457.180    -400.732
  H     -126.670    -451.145    -398.513
  H     -127.283    -453.386    -397.644
  H     -127.662    -454.122    -394.324
  H     -130.236    -452.964    -394.710
  H     -130.526    -454.054    -396.844
  H     -129.292    -456.538    -395.549
  H     -127.134    -448.133    -396.375
  H     -128.488    -456.991    -397.839
  H     -126.604    -448.685    -397.944
  H     -130.263    -456.967    -397.778
  P     -132.876    -455.210    -396.633
  C     -134.432    -455.381    -394.594
  O     -134.134    -455.870    -395.890
  O     -132.686    -455.619    -398.057
  O     -133.186    -453.640    -396.533
  H     -133.369    -453.298    -397.423
  H     -135.461    -455.652    -394.349
  H     -134.322    -454.299    -394.552
  H     -133.757    -455.853    -393.872
  H     -130.883    -458.119    -401.989
  H     -129.173    -458.251    -401.656
  H     -129.769    -456.955    -402.665

 3  4  5  6  7  8  9  10  11  12  13  23  27  28  29  30  32 0
 6-311+G(2d,p)
 ****
 34  35 0
 6-311+G(2d,p)
 ****
 1  2  14  15  16  17  18  19  20  21  22  24  25  26 0
 3-21G
 ****
 31  33  36  37  38  39  40  41  42  43  44  45  46 0
 3-21G
 ****


