%nproc=1
%NoSave
%Mem=1900MB
#P OB98/GEN NMR

erre ene a

0 1
  C      203.382    -158.199     -47.695
  O      202.031    -158.219     -47.277
  H      203.969    -157.630     -46.970
  H      203.464    -157.718     -48.674
  H      203.776    -159.218     -47.749
  P      201.008    -159.044     -48.197
  C      199.222    -159.302     -46.316
  O      199.549    -158.767     -47.590
  C      197.897    -158.706     -45.815
  O      198.123    -157.316     -45.448
  C      196.778    -158.713     -46.875
  O      195.514    -158.828     -46.202
  C      196.905    -157.321     -47.471
  O      195.744    -156.985     -48.189
  C      197.178    -156.523     -46.199
  N      197.204    -151.668     -44.628
  C      196.643    -152.784     -44.108
  N      196.690    -154.043     -44.585
  C      197.435    -154.100     -45.706
  C      198.066    -153.053     -46.353
  C      197.923    -151.781     -45.774
  N      198.473    -150.640     -46.310
  N      198.707    -153.505     -47.493
  C      198.475    -154.801     -47.523
  N      197.710    -155.206     -46.463
  O      201.306    -160.566     -47.797
  O      201.131    -158.818     -49.666
  H      195.846    -156.121     -48.638
  H      201.968    -160.947     -48.402
  H      196.078    -152.641     -43.189
  H      198.820    -155.490     -48.286
  H      196.276    -156.400     -45.586
  H      197.752    -157.265     -48.163
  H      196.879    -159.519     -47.606
  H      197.588    -159.230     -44.901
  H      200.029    -159.056     -45.615
  H      199.125    -160.388     -46.390
  H      198.303    -149.764     -45.846
  H      198.984    -150.704     -47.179
  P      194.587    -160.111     -46.489
  C      193.504    -160.111     -44.114
  O      193.306    -160.105     -45.519
  O      195.469    -161.303     -45.875
  O      194.287    -160.379     -47.926
  H      195.493    -162.049     -46.502
  H      192.555    -160.106     -43.620
  H      194.059    -159.242     -43.828
  H      194.047    -160.989     -43.834

 6  7  8  9  10  11  12  13  14  15  25  28  32  33  34  35 0
 6-311+G(2d,p)
 ****
 36  37  40 0
 6-311+G(2d,p)
 ****
 1  2  3  4  5  16  17  18  19  20  21  22  23  24 0
 3-21G
 ****
 26  27  29  30  31  38  39 41  42  43  44  45  46  47  48 0
 3-21G
 ****


