%nproc=1
%NoSave
%Mem=1900MB
#P OB98/GEN NMR

erre ene a

0 1
  C     -212.204       9.305    -260.941
  O     -213.275       9.481    -260.039
  H     -211.513       8.567    -260.520
  H     -211.665      10.245    -261.081
  H     -212.562       8.934    -261.905
  P     -214.519      10.388    -260.488
  C     -214.668      12.590    -259.155
  O     -214.087      11.916    -260.267
  C     -213.914      12.225    -257.878
  O     -212.510      12.545    -258.022
  C     -214.378      12.995    -256.648
  O     -215.612      12.503    -256.162
  C     -213.193      12.794    -255.719
  O     -213.261      11.521    -255.062
  C     -212.003      12.837    -256.704
  N     -211.315      14.129    -256.675
  C     -210.471      14.353    -255.594
  O     -210.283      13.533    -254.695
  N     -209.893      15.593    -255.538
  C     -210.177      16.644    -256.365
  O     -209.831      17.799    -256.135
  C     -211.027      16.328    -257.525
  C     -211.557      15.106    -257.621
  O     -215.839      10.009    -259.903
  O     -214.527      10.248    -262.086
  H     -215.227       9.620    -262.349
  H     -212.406      11.414    -254.599
  H     -209.310      15.781    -254.730
  H     -211.221      17.119    -258.243
  H     -212.212      14.862    -258.449
  H     -211.275      12.050    -256.459
  H     -213.150      13.566    -254.949
  H     -214.463      14.061    -256.889
  H     -214.004      11.142    -257.720
  H     -215.713      12.278    -259.062
  H     -214.630      13.670    -259.333
  P     -216.606      13.466    -255.353
  C     -217.008      12.566    -252.979
  O     -216.207      13.409    -253.802
  O     -218.057      13.264    -255.637
  O     -216.148      14.943    -255.781
  H     -216.933      15.448    -256.062
  H     -216.651      12.608    -251.971
  H     -216.950      11.559    -253.337
  H     -218.025      12.898    -253.011

 6  7  8  9  10  11  12  13  14  15  16  27  31  32  33  34  35 0
 6-311+G(2d,p)
 ****
 36  37 0
 6-311+G(2d,p)
 ****
 1  2  3  4  5  17  18  19  20  21  22  23  24  25 0
 3-21G
 ****
 26  28  29  30  38  39  40  41  42  43  44  45 0
 3-21G
 ****


