%nproc=1
%NoSave
%Mem=1900MB
#P OB98/GEN NMR

erre ene a

0 1
  C      -31.066      95.046     -89.614
  O      -29.967      94.875     -90.511
  P      -30.223      94.175     -91.929
  C      -29.918      91.697     -91.293
  O      -30.834      92.710     -91.680
  C      -30.278      90.357     -91.948
  O      -31.593      89.908     -91.509
  C      -30.322      90.445     -93.480
  O      -29.902      89.204     -94.068
  C      -31.802      90.617     -93.766
  O      -32.125      90.249     -95.105
  C      -32.404      89.719     -92.687
  N      -37.258      89.018     -94.160
  C      -36.097      88.497     -94.615
  N      -34.845      88.712     -94.158
  C      -34.859      89.554     -93.111
  C      -35.965      90.155     -92.532
  C      -37.214      89.865     -93.105
  N      -38.393      90.418     -92.661
  N      -35.589      90.963     -91.477
  C      -34.274      90.886     -91.452
  N      -33.790      90.023     -92.397
  O      -29.083      94.225     -92.890
  O      -31.487      94.980     -92.499
  H      -32.062      89.278     -95.164
  H      -31.352      95.154     -93.451
  H      -36.186      87.822     -95.461
  H      -33.630      91.441     -90.786
  H      -32.346      88.659     -92.961
  H      -32.089      91.664     -93.618
  H      -29.723      91.256     -93.906
  H      -29.558      89.597     -91.627
  H      -29.922      91.592     -90.206
  H      -39.224      90.243     -93.206
  H      -38.357      91.161     -91.976
  H      -28.902      92.011     -91.561
  P      -28.444      89.204     -94.752
  C      -29.107      90.195     -97.079
  O      -28.472      90.383     -95.834
  O      -28.018      87.862     -95.248
  O      -27.527      89.772     -93.570
  H      -27.853      90.590     -93.158
  H      -29.127      91.148     -97.612
  H      -30.136      89.852     -96.942
  H      -28.552      89.468     -97.678
  H      -30.726      95.526     -88.720
  H      -31.479      94.090     -89.370
  H      -31.816      95.651     -90.080

 3  4  5  6  7  8  9  10  11  12  22  25  29  30  31  32 0
 6-311+G(2d,p)
 ****
 33  36  37 0
 6-311+G(2d,p)
 ****
 1  2  13  14  15  16  17  18  19  20  21  23  24  26 0
 3-21G
 ****
 27  28  34  35  38  39  40  41  42  43  44  45  46  47  48 0
 3-21G
 ****


