%nproc=1
%NoSave
%Mem=1900MB
#P OB98/GEN NMR

erre ene a

0 1
  C     -415.799     167.917     132.599
  O     -415.705     169.329     132.533
  P     -415.967     170.103     131.153
  C     -418.494     169.781     131.514
  O     -417.399     169.615     130.619
  C     -419.755     170.196     130.759
  O     -420.874     170.183     131.675
  C     -419.670     171.595     130.158
  O     -420.360     171.605     128.906
  C     -420.437     172.472     131.134
  O     -420.966     173.639     130.482
  C     -421.486     171.487     131.656
  N     -423.980     174.883     134.590
  C     -423.740     174.852     133.261
  N     -423.049     173.931     132.555
  C     -422.631     172.938     133.353
  C     -422.800     172.834     134.725
  C     -423.511     173.870     135.353
  N     -423.766     173.893     136.711
  N     -422.200     171.684     135.209
  C     -421.696     171.101     134.140
  N     -421.937     171.813     132.995
  O     -414.868     169.999     130.155
  O     -416.240     171.618     131.585
  H     -420.203     174.216     130.264
  H     -415.836     172.231     130.940
  H     -424.159     175.674     132.691
  H     -421.140     170.176     134.145
  H     -422.365     171.442     130.998
  H     -419.766     172.807     131.930
  H     -418.637     171.934     130.017
  H     -419.957     169.451     129.982
  H     -418.231     170.564     132.235
  H     -424.385     174.610     137.049
  H     -423.569     173.059     137.246
  H     -418.658     168.851     132.063
  P     -419.737     172.559     127.767
  C     -417.726     170.967     127.308
  O     -418.174     172.224     127.771
  O     -420.131     173.987     127.947
  O     -420.312     171.870     126.437
  H     -420.515     170.916     126.585
  H     -416.640     170.920     127.425
  H     -417.967     170.850     126.249
  H     -418.185     170.164     127.887
  H     -415.591     167.592     133.597
  H     -415.090     167.481     131.927
  H     -416.787     167.612     132.323

 3  4  5  6  7  8  9  10  11  12  22  25  29  30  31  32 0
 6-311+G(2d,p)
 ****
 33  36  37 0
 6-311+G(2d,p)
 ****
 1  2  13  14  15  16  17  18  19  20  21  23  24  26 0
 3-21G
 ****
 27  28  34  35  38  39  40  41  42  43  44  45  46  47  48 0
 3-21G
 ****


