%nproc=1
%NoSave
%Mem=1900MB
#P OB98/GEN NMR

erre ene a

0 1
  C     -187.311    -183.735     364.835
  O     -186.312    -183.493     365.809
  H     -186.831    -183.822     363.853
  H     -188.010    -182.894     364.809
  H     -187.848    -184.664     365.050
  P     -186.742    -183.635     367.344
  C     -187.161    -181.116     367.804
  O     -187.734    -182.407     367.675
  C     -188.231    -180.092     368.189
  O     -189.260    -180.087     367.160
  C     -188.914    -180.388     369.533
  O     -189.157    -179.148     370.208
  C     -190.243    -181.012     369.125
  O     -191.252    -180.847     370.118
  C     -190.528    -180.286     367.811
  N     -195.390    -181.287     366.908
  C     -194.814    -180.386     367.780
  N     -195.657    -179.645     368.534
  N     -193.519    -180.226     367.911
  C     -192.798    -181.009     367.065
  C     -193.251    -181.944     366.163
  C     -194.684    -182.133     366.048
  O     -195.256    -182.930     365.310
  N     -192.208    -182.560     365.520
  C     -191.126    -181.997     366.034
  N     -191.433    -181.048     366.972
  O     -185.399    -183.255     368.137
  O     -187.251    -184.980     367.749
  H     -192.085    -181.226     369.757
  H     -185.079    -184.032     368.632
  H     -196.395    -181.378     366.861
  H     -190.104    -182.249     365.772
  H     -190.993    -179.296     367.973
  H     -190.104    -182.087     368.954
  H     -196.662    -179.683     368.455
  H     -188.328    -181.046     370.177
  H     -195.255    -178.949     369.154
  H     -187.778    -179.095     368.187
  H     -186.709    -180.834     366.844
  H     -186.378    -181.142     368.571
  P     -188.003    -178.623     371.196
  C     -189.467    -179.132     373.280
  O     -188.216    -179.321     372.634
  O     -188.414    -177.096     371.460
  O     -186.623    -178.729     370.631
  H     -187.795    -176.502     370.992
  H     -189.466    -179.648     374.217
  H     -190.250    -179.518     372.661
  H     -189.628    -178.088     373.448

 6  7  8  9  10  11  12  13  14  15  26  29  33  34 0
 6-311+G(2d,p)
 ****
 36  38  39  40  41 0
 6-311+G(2d,p)
 ****
 1  2  3  4  5  16  17  18  19  20  21  22  23  24  25 0
 3-21G
 ****
 27  28  30  31  32  35  37  42  43  44  45  46  47 0
 3-21G
 ****
 48  49 0
 3-21G
 ****


