%nproc=1
%NoSave
%Mem=1900MB
#P OB98/GEN NMR

erre ene a

0 1
  C      781.116     -69.211     480.630
  O      780.549     -68.358     481.619
  P      781.162     -68.401     483.100
  C      783.195     -66.852     482.775
  O      782.753     -68.187     482.999
  C      783.952     -66.320     484.009
  O      785.087     -67.185     484.279
  C      784.540     -64.907     483.856
  O      783.712     -63.798     484.211
  C      785.682     -64.943     484.859
  O      785.179     -64.663     486.191
  C      786.168     -66.391     484.803
  N      791.172     -65.322     484.406
  C      790.251     -65.024     485.351
  N      788.944     -65.349     485.387
  C      788.597     -66.059     484.294
  C      789.425     -66.428     483.246
  C      790.767     -66.030     483.317
  N      791.703     -66.328     482.352
  N      788.713     -67.157     482.307
  C      787.477     -67.188     482.770
  N      787.365     -66.552     483.976
  O      780.720     -69.541     483.959
  O      780.665     -67.000     483.713
  H      785.044     -63.691     486.233
  H      780.448     -67.137     484.659
  H      790.623     -64.448     486.202
  H      786.648     -67.650     482.265
  H      786.417     -66.782     485.795
  H      786.446     -64.183     484.656
  H      784.936     -64.763     482.846
  H      783.290     -66.353     484.881
  H      782.339     -66.206     482.566
  H      792.635     -65.962     482.457
  H      791.400     -66.810     481.513
  H      783.832     -66.862     481.871
  P      783.211     -62.735     483.104
  C      780.623     -63.102     483.201
  O      781.842     -63.327     482.523
  O      784.222     -62.394     482.067
  O      782.728     -61.506     484.004
  H      781.921     -61.691     484.525
  H      779.793     -63.400     482.540
  H      780.511     -62.042     483.443
  H      780.571     -63.695     484.115
  H      780.604     -69.069     479.701
  H      781.018     -70.231     480.939
  H      782.152     -68.974     480.506

 3  4  5  6  7  8  9  10  11  12  22  25  29  30  31  32 0
 6-311+G(2d,p)
 ****
 33  36  37 0
 6-311+G(2d,p)
 ****
 1  2  13  14  15  16  17  18  19  20  21  23  24  26 0
 3-21G
 ****
 27  28  34  35  38  39  40  41  42  43  44  45  46  47  48 0
 3-21G
 ****


