%nproc=1
%NoSave
%Mem=1900MB
#P OB98/GEN NMR

erre ene a

0 1
  C      -70.471     -62.318    -199.052
  O      -71.023     -61.431    -200.006
  P      -71.585     -60.001    -199.562
  C      -73.974     -60.838    -199.950
  O      -73.086     -60.214    -199.032
  C      -75.397     -60.302    -199.798
  O      -76.201     -60.769    -200.914
  C      -76.110     -60.734    -198.509
  O      -76.959     -59.648    -198.123
  C      -76.959     -61.905    -198.972
  O      -78.047     -62.180    -198.098
  C      -77.366     -61.413    -200.356
  N      -81.337     -63.486    -202.819
  C      -81.251     -62.431    -201.981
  N      -80.161     -61.958    -201.344
  C      -79.078     -62.690    -201.648
  C      -79.017     -63.810    -202.461
  C      -80.218     -64.201    -203.080
  N      -80.317     -65.253    -203.964
  N      -77.733     -64.324    -202.479
  C      -77.037     -63.526    -201.695
  N      -77.794     -62.490    -201.223
  O      -71.432     -58.914    -200.574
  O      -70.773     -59.663    -198.225
  H      -78.528     -62.958    -198.439
  H      -70.103     -58.976    -198.409
  H      -82.178     -61.893    -201.802
  H      -75.996     -63.652    -201.435
  H      -78.174     -60.673    -200.312
  H      -76.340     -62.806    -199.035
  H      -75.431     -61.003    -197.694
  H      -75.358     -59.207    -199.864
  H      -73.970     -61.912    -199.747
  H      -81.194     -65.361    -204.450
  H      -79.466     -65.628    -204.378
  H      -73.619     -60.678    -200.975
  P      -76.734     -58.921    -196.712
  C      -78.104     -60.610    -195.362
  O      -76.819     -60.063    -195.593
  O      -77.587     -57.720    -196.469
  O      -75.175     -58.545    -196.729
  H      -74.997     -57.864    -196.053
  H      -78.673     -59.939    -194.712
  H      -77.994     -61.578    -194.868
  H      -78.648     -60.749    -196.301
  H      -70.153     -63.215    -199.541
  H      -71.211     -62.556    -198.316
  H      -69.632     -61.854    -198.577

 3  4  5  6  7  8  9  10  11  12  22  25  29  30  31  32 0
 6-311+G(2d,p)
 ****
 33  36  37 0
 6-311+G(2d,p)
 ****
 1  2  13  14  15  16  17  18  19  20  21  23  24  26 0
 3-21G
 ****
 27  28  34  35  38  39  40  41  42  43  44  45  46  47  48 0
 3-21G
 ****


