%nproc=1
%NoSave
%Mem=1900MB
#P OB98/GEN NMR

erre ene a

0 1
  C     -275.514     187.504    -282.486
  O     -274.944     187.399    -283.779
  P     -273.994     186.138    -284.069
  C     -275.993     184.697    -284.903
  O     -274.937     184.846    -283.957
  C     -275.833     183.386    -285.672
  O     -274.702     183.472    -286.557
  C     -275.577     182.178    -284.791
  O     -276.774     181.739    -284.187
  C     -274.994     181.194    -285.798
  O     -276.032     180.464    -286.469
  C     -274.242     182.120    -286.785
  N     -272.798     182.019    -286.655
  C     -272.246     180.766    -286.956
  O     -272.977     179.832    -287.285
  N     -270.886     180.600    -286.836
  C     -270.151     181.593    -286.450
  N     -268.811     181.373    -286.352
  C     -270.694     182.920    -286.102
  C     -272.013     183.061    -286.222
  O     -273.091     186.055    -282.752
  O     -273.178     186.244    -285.315
  H     -276.379     179.831    -285.806
  H     -272.233     185.632    -282.945
  H     -270.036     183.716    -285.782
  H     -272.499     184.003    -285.987
  H     -274.508     181.869    -287.818
  H     -274.349     180.453    -285.312
  H     -274.822     182.413    -284.028
  H     -276.733     183.237    -286.287
  H     -268.468     180.452    -286.590
  H     -275.962     185.531    -285.612
  H     -268.151     182.087    -286.079
  H     -276.951     184.719    -284.374
  P     -276.669     181.017    -282.763
  C     -277.630     182.995    -281.449
  O     -276.485     182.208    -281.706
  O     -275.194     180.386    -282.811
  O     -277.706     179.996    -282.436
  H     -275.047     179.827    -282.028
  H     -277.414     183.662    -280.607
  H     -278.480     182.361    -281.183
  H     -277.875     183.604    -282.324
  H     -276.119     188.385    -282.434
  H     -274.734     187.563    -281.756
  H     -276.119     186.643    -282.292

 3  4  5  6  7  8  9  10  11  12  13  21  23  27  28  29  30  32 0
 6-311+G(2d,p)
 ****
 34  35 0
 6-311+G(2d,p)
 ****
 1  2  14  15  16  17  18  19  20  22  24  25  26 0
 3-21G
 ****
 31  33  36  37  38  39  40  41  42  43  44  45  46 0
 3-21G
 ****


