%nproc=1
%NoSave
%Mem=1900MB
#P OB98/GEN NMR

erre ene a

0 1
  C      -94.773      87.767      63.270
  O      -95.249      88.650      64.265
  P      -95.081      88.294      65.820
  C      -96.718      90.220      66.337
  O      -96.417      88.839      66.527
  C      -98.228      90.455      66.366
  O      -98.850      89.904      65.187
  C      -98.935      89.810      67.550
  O      -98.730      90.567      68.727
  C     -100.375      89.785      67.052
  O     -101.019      91.051      67.263
  C     -100.193      89.510      65.545
  N     -100.458      88.120      65.196
  C     -101.800      87.724      65.247
  O     -102.672      88.519      65.601
  N     -102.113      86.420      64.943
  C     -101.168      85.587      64.640
  N     -101.540      84.308      64.358
  C      -99.739      85.957      64.606
  C      -99.459      87.226      64.894
  O      -93.800      88.738      66.441
  O      -95.286      86.705      65.852
  H     -101.953      90.929      66.998
  H      -94.495      86.232      65.492
  H      -98.985      85.224      64.358
  H      -98.436      87.583      64.895
  H     -100.867      90.145      64.955
  H     -100.974      89.030      67.570
  H      -98.576      88.782      67.681
  H      -98.403      91.539      66.367
  H     -102.526      84.087      64.423
  H      -96.324      90.526      65.363
  H     -100.884      83.572      64.147
  H      -96.219      90.810      67.112
  P      -98.130      89.864      70.033
  C      -98.961      91.723      71.592
  O      -98.999      90.342      71.291
  O      -96.649      89.974      70.199
  O      -98.562      88.329      69.861
  H      -97.804      87.758      70.088
  H      -99.818      91.968      72.224
  H      -99.005      92.327      70.681
  H      -98.041      91.951      72.138
  H      -94.976      88.177      62.303
  H      -95.264      86.822      63.367
  H      -93.718      87.634      63.386

 3  4  5  6  7  8  9  10  11  12  13  23  27  28  29  30  32 0
 6-311+G(2d,p)
 ****
 34  35 0
 6-311+G(2d,p)
 ****
 1  2  14  15  16  17  18  19  20  21  22  24  25  26 0
 3-21G
 ****
 31  33  36  37  38  39  40  41  42  43  44  45  46 0
 3-21G
 ****


