%nproc=1
%NoSave
%Mem=1900MB
#P OB98/GEN NMR

erre ene a

0 1
  C      202.358      56.682     141.712
  O      203.061      57.897     141.819
  H      202.717      56.005     142.492
  H      202.543      56.215     140.741
  H      201.284      56.839     141.856
  P      202.763      59.074     140.762
  C      204.132      57.860     138.955
  O      204.005      59.044     139.735
  C      204.688      58.174     137.568
  O      203.764      59.050     136.859
  C      206.060      58.868     137.592
  O      206.942      58.235     136.656
  C      205.752      60.287     137.127
  O      206.878      60.940     136.550
  C      204.572      60.025     136.178
  N      203.839      61.243     135.872
  C      204.449      62.126     134.974
  O      205.546      61.850     134.485
  N      203.836      63.319     134.693
  C      202.728      63.627     135.299
  N      202.182      64.839     134.997
  C      202.061      62.739     136.274
  C      202.662      61.573     136.509
  O      202.481      60.405     141.376
  O      201.555      58.521     139.865
  H      206.565      61.727     136.053
  H      201.088      59.290     139.453
  H      201.139      63.044     136.750
  H      202.249      60.855     137.209
  H      204.922      59.577     135.233
  H      205.415      60.879     137.982
  H      206.528      58.867     138.576
  H      204.726      57.238     136.992
  H      202.674      65.418     134.325
  H      203.145      57.383     138.877
  H      201.339      65.197     135.417
  H      204.818      57.180     139.475
  P      207.713      56.930     137.180
  C      209.708      58.072     138.384
  O      209.275      57.288     137.281
  O      207.616      55.921     135.939
  O      207.104      56.334     138.414
  H      207.020      55.183     136.153
  H      210.764      58.228     138.318
  H      209.480      57.561     139.296
  H      209.206      59.017     138.369

 6  7  8  9  10  11  12  13  14  15  16  26  30  31  32  33  35 0
 6-311+G(2d,p)
 ****
 37  38 0
 6-311+G(2d,p)
 ****
 1  2  3  4  5  17  18  19  20  21  22  23  24  25 0
 3-21G
 ****
 27  28  29  34  36  39  40  41  42  43  44  45  46 0
 3-21G
 ****


