%nproc=1
%NoSave
%Mem=1900MB
#P OB98/GEN NMR

erre ene a

0 1
  C     -264.930     -10.872      64.575
  O     -265.699     -10.032      63.732
  P     -264.930      -8.809      63.025
  C     -265.408      -7.419      65.186
  O     -264.466      -7.829      64.205
  C     -265.824      -5.971      64.926
  O     -264.662      -5.144      64.725
  C     -266.701      -5.783      63.695
  O     -268.048      -6.092      63.994
  C     -266.461      -4.312      63.372
  O     -267.273      -3.464      64.209
  C     -264.970      -4.151      63.707
  N     -261.166      -2.070      61.109
  C     -261.944      -1.541      62.124
  N     -261.628      -0.294      62.533
  N     -262.936      -2.180      62.688
  C     -263.142      -3.412      62.167
  C     -262.452      -4.037      61.154
  C     -261.326      -3.341      60.577
  O     -260.548      -3.800      59.746
  N     -262.970      -5.278      60.886
  C     -263.950      -5.413      61.756
  N     -264.083      -4.319      62.572
  O     -266.108      -8.014      62.295
  O     -263.832      -9.204      62.088
  H     -268.209      -3.585      63.968
  H     -266.151      -8.252      61.349
  H     -260.407      -1.536      60.728
  H     -264.573      -6.288      61.848
  H     -264.749      -3.167      64.140
  H     -266.717      -4.071      62.338
  H     -260.897       0.267      62.131
  H     -266.334      -6.405      62.868
  H     -262.192       0.111      63.275
  H     -266.342      -5.606      65.824
  H     -264.949      -7.493      66.176
  H     -266.276      -8.085      65.149
  P     -268.885      -6.900      62.886
  C     -269.116      -4.722      61.488
  O     -268.756      -6.091      61.511
  O     -270.406      -6.663      63.331
  O     -268.562      -8.357      62.808
  H     -270.927      -7.468      63.149
  H     -268.515      -4.216      60.732
  H     -268.945      -4.245      62.458
  H     -270.172      -4.634      61.226
  H     -265.555     -11.640      64.980
  H     -264.515     -10.293      65.373
  H     -264.139     -11.318      64.009

 3  4  5  6  7  8  9  10  11  12  23  26  30  31 0
 6-311+G(2d,p)
 ****
 33  35  36  37  38 0
 6-311+G(2d,p)
 ****
 1  2  13  14  15  16  17  18  19  20  21  22  24  25 0
 3-21G
 ****
 27  28  29  32  34  39  40  41  42  43  44  45  46  47  48  49 0
 3-21G
 ****


