%nproc=1
%NoSave
%Mem=1900MB
#P OB98/GEN NMR

erre ene a

0 1
  C     -328.169     136.810    -118.321
  O     -328.790     135.614    -118.742
  H     -327.158     136.580    -117.961
  H     -328.737     137.273    -117.506
  H     -328.090     137.512    -119.157
  P     -330.323     135.736    -119.209
  C     -332.378     134.634    -118.039
  O     -331.151     135.326    -117.894
  C     -332.843     134.110    -116.679
  O     -331.909     133.131    -116.167
  C     -332.940     135.184    -115.600
  O     -334.117     135.968    -115.698
  C     -332.952     134.314    -114.355
  O     -334.248     133.709    -114.195
  C     -331.886     133.255    -114.724
  N     -330.539     133.605    -114.255
  C     -329.906     132.704    -113.397
  O     -330.476     131.666    -113.051
  N     -328.649     133.007    -112.915
  C     -328.068     134.116    -113.270
  N     -326.840     134.368    -112.755
  C     -328.690     135.091    -114.186
  C     -329.900     134.777    -114.635
  O     -330.530     134.456    -120.155
  O     -330.707     137.032    -119.837
  H     -334.907     134.426    -114.302
  H     -331.484     134.368    -120.400
  H     -328.173     136.004    -114.455
  H     -330.431     135.452    -115.315
  H     -332.144     132.277    -114.299
  H     -332.740     134.873    -113.436
  H     -332.044     135.814    -115.578
  H     -333.805     133.594    -116.824
  H     -326.455     133.717    -112.085
  H     -332.227     133.795    -118.725
  H     -326.394     135.275    -112.827
  H     -333.143     135.297    -118.450
  P     -334.013     137.518    -115.301
  C     -333.675     138.817    -113.066
  O     -333.571     137.574    -113.758
  O     -335.550     137.979    -115.235
  O     -333.213     138.365    -116.242
  H     -335.658     138.879    -115.604
  H     -333.345     138.691    -112.056
  H     -334.694     139.144    -113.071
  H     -333.064     139.548    -113.552

 6  7  8  9  10  11  12  13  14  15  16  26  30  31  32  33  35 0
 6-311+G(2d,p)
 ****
 37  38 0
 6-311+G(2d,p)
 ****
 1  2  3  4  5  17  18  19  20  21  22  23  24  25 0
 3-21G
 ****
 27  28  29  34  36  39  40  41  42  43  44  45  46 0
 3-21G
 ****


