%nproc=1
%NoSave
%Mem=1900MB
#P OB98/GEN NMR

erre ene a

0 1
  C       56.794    -136.246      64.444
  O       56.605    -137.093      65.560
  H       57.292    -136.816      63.655
  H       57.430    -135.400      64.718
  H       55.835    -135.885      64.063
  P       55.803    -136.536      66.832
  C       57.961    -137.061      68.131
  O       56.905    -136.132      67.931
  C       58.569    -136.891      69.523
  O       59.221    -135.598      69.587
  C       57.544    -136.963      70.659
  O       58.134    -137.636      71.767
  C       57.312    -135.502      71.013
  O       56.888    -135.336      72.368
  C       58.682    -134.891      70.722
  N       57.207    -130.431      72.588
  C       57.241    -131.676      73.179
  N       56.791    -131.760      74.456
  N       57.673    -132.753      72.578
  C       58.105    -132.525      71.313
  C       58.118    -131.342      70.614
  C       57.624    -130.155      71.289
  O       57.557    -129.028      70.810
  N       58.606    -131.521      69.344
  C       58.878    -132.809      69.274
  N       58.584    -133.465      70.438
  O       54.713    -137.421      67.345
  O       55.239    -135.122      66.342
  H       56.795    -134.372      72.523
  H       54.299    -135.194      66.090
  H       56.852    -129.639      73.097
  H       59.284    -133.319      68.405
  H       59.375    -135.000      71.566
  H       56.543    -135.079      70.360
  H       56.462    -130.969      74.986
  H       56.615    -137.465      70.362
  H       56.832    -132.657      74.915
  H       59.351    -137.647      69.654
  H       58.724    -136.880      67.366
  H       57.574    -138.081      68.012
  P       58.209    -139.239      71.748
  C       56.632    -139.261      73.788
  O       56.912    -139.811      72.506
  O       59.509    -139.830      72.173
  O       57.895    -139.584      70.208
  H       58.354    -140.415      69.972
  H       55.751    -139.719      74.188
  H       56.476    -138.206      73.697
  H       57.458    -139.444      74.443

 6  7  8  9  10  11  12  13  14  15  26  29  33  34 0
 6-311+G(2d,p)
 ****
 36  38  39  40  41 0
 6-311+G(2d,p)
 ****
 1  2  3  4  5  16  17  18  19  20  21  22  23  24  25 0
 3-21G
 ****
 27  28  30  31  32  35  37  42  43  44  45  46  47 0
 3-21G
 ****
 48  49 0
 3-21G
 ****


