%nproc=1
%NoSave
%Mem=1900MB
#P OB98/GEN NMR

erre ene a

0 1
  C       93.955      13.641     315.945
  O       93.222      13.020     314.888
  P       92.609      11.572     315.210
  C       91.070      11.506     313.126
  O       92.159      10.915     313.815
  C       91.513      12.756     312.359
  O       92.483      12.408     311.325
  C       90.358      13.494     311.662
  O       90.667      14.892     311.721
  C       90.466      12.976     310.236
  O       89.754      13.767     309.297
  C       91.982      12.950     310.085
  N       92.151      12.723     304.992
  C       91.612      13.626     305.837
  N       91.606      13.613     307.187
  C       92.247      12.526     307.650
  C       92.843      11.517     306.912
  C       92.782      11.643     305.513
  N       93.308      10.716     304.643
  N       93.383      10.551     307.750
  C       93.044      10.947     308.964
  N       92.434      12.169     308.957
  O       91.227      11.905     315.943
  O       93.506      10.717     316.045
  H       89.710      13.302     308.438
  H       91.327      11.827     316.909
  H       91.116      14.471     305.366
  H       93.216      10.389     309.874
  H       92.403      13.957     309.969
  H       90.054      11.962     310.188
  H       89.384      13.323     312.125
  H       92.016      13.431     313.061
  H       90.283      11.784     313.835
  H       93.210      10.892     303.655
  H       93.774       9.890     304.991
  H       90.627      10.764     312.454
  P       89.680      15.872     312.524
  C       91.146      17.657     313.639
  O       90.410      17.300     312.484
  O       89.975      15.412     314.032
  O       88.241      15.820     312.137
  H       90.932      15.387     314.212
  H       91.653      18.606     313.451
  H       91.893      16.893     313.864
  H       90.468      17.779     314.490
  H       94.314      14.595     315.618
  H       94.785      13.022     316.216
  H       93.316      13.772     316.793

 3  4  5  6  7  8  9  10  11  12  22  25  29  30  31  32 0
 6-311+G(2d,p)
 ****
 33  36  37 0
 6-311+G(2d,p)
 ****
 1  2  13  14  15  16  17  18  19  20  21  23  24  26 0
 3-21G
 ****
 27  28  34  35  38  39  40  41  42  43  44  45  46  47  48 0
 3-21G
 ****


