%nproc=1
%NoSave
%Mem=1900MB
#P OB98/GEN NMR

erre ene a

0 1
  C      -53.287    -821.758    -390.150
  O      -54.092    -820.978    -391.044
  P      -55.412    -820.203    -390.565
  C      -55.889    -817.930    -389.434
  O      -55.078    -818.648    -390.361
  C      -55.933    -816.435    -389.763
  O      -54.624    -815.844    -389.635
  C      -56.396    -816.101    -391.180
  O      -57.797    -816.250    -391.308
  C      -55.882    -814.671    -391.326
  O      -56.792    -813.730    -390.720
  C      -54.552    -814.724    -390.539
  N      -53.394    -814.820    -391.417
  C      -52.428    -813.813    -391.285
  O      -52.597    -812.879    -390.504
  N      -51.290    -813.884    -392.058
  C      -51.180    -814.834    -392.941
  N      -50.035    -814.856    -393.682
  C      -52.216    -815.864    -393.181
  C      -53.285    -815.790    -392.387
  O      -56.104    -820.836    -389.396
  O      -56.380    -820.202    -391.848
  H      -57.647    -813.844    -391.169
  H      -57.306    -820.223    -391.550
  H      -52.091    -816.608    -393.943
  H      -54.088    -816.510    -392.490
  H      -54.447    -813.838    -389.904
  H      -55.755    -814.376    -392.371
  H      -55.881    -816.751    -391.897
  H      -56.592    -815.950    -389.020
  H      -49.337    -814.145    -393.495
  H      -55.470    -818.068    -388.430
  H      -49.842    -815.546    -394.392
  H      -56.903    -818.356    -389.450
  P      -58.392    -817.457    -392.173
  C      -59.164    -819.859    -391.674
  O      -58.952    -818.554    -391.156
  O      -57.506    -817.981    -393.253
  O      -59.743    -816.845    -392.805
  H      -59.900    -817.257    -393.676
  H      -59.139    -820.575    -390.857
  H      -58.375    -820.119    -392.389
  H      -60.135    -819.901    -392.170
  H      -52.463    -822.180    -390.687
  H      -53.879    -822.544    -389.731
  H      -52.917    -821.132    -389.365

 3  4  5  6  7  8  9  10  11  12  13  23  27  28  29  30  32 0
 6-311+G(2d,p)
 ****
 34  35 0
 6-311+G(2d,p)
 ****
 1  2  14  15  16  17  18  19  20  21  22  24  25  26 0
 3-21G
 ****
 31  33  36  37  38  39  40  41  42  43  44  45  46 0
 3-21G
 ****


