%nproc=1
%NoSave
%Mem=1900MB
#P OB98/GEN NMR

erre ene a

0 1
  C      -63.179    -300.668     806.210
  O      -62.871    -299.833     805.123
  P      -61.344    -299.573     804.675
  C      -61.031    -301.615     803.131
  O      -61.241    -300.213     803.202
  C      -61.277    -302.128     801.728
  O      -62.665    -301.907     801.394
  C      -60.484    -301.431     800.620
  O      -59.158    -301.957     800.421
  C      -61.333    -301.764     799.402
  O      -61.067    -303.113     798.974
  C      -62.757    -301.651     799.971
  N      -64.332    -298.355     796.390
  C      -63.818    -299.608     796.305
  N      -63.412    -300.415     797.302
  C      -63.590    -299.827     798.496
  C      -64.129    -298.559     798.735
  C      -64.497    -297.807     797.620
  N      -65.043    -296.548     797.707
  N      -64.159    -298.314     800.099
  C      -63.684    -299.397     800.656
  N      -63.340    -300.361     799.732
  O      -60.327    -300.038     805.657
  O      -61.278    -298.012     804.397
  H      -61.907    -303.465     798.618
  H      -60.347    -297.710     804.370
  H      -63.722    -300.019     795.308
  H      -63.562    -299.550     801.720
  H      -63.433    -302.416     799.551
  H      -61.117    -301.115     798.547
  H      -60.457    -300.343     800.758
  H      -61.088    -303.220     801.712
  H      -61.725    -302.106     803.825
  H      -65.411    -296.126     796.841
  H      -65.322    -296.209     798.611
  H      -60.010    -301.847     803.471
  P      -58.050    -300.925     799.895
  C      -56.583    -301.009     802.072
  O      -56.703    -301.302     800.698
  O      -58.437    -299.486     799.966
  O      -57.749    -301.447     798.415
  H      -57.327    -302.329     798.349
  H      -55.688    -301.490     802.443
  H      -57.432    -301.392     802.637
  H      -56.488    -299.926     802.223
  H      -64.240    -300.707     806.341
  H      -62.724    -300.280     807.098
  H      -62.807    -301.653     806.020

 3  4  5  6  7  8  9  10  11  12  22  25  29  30  31  32 0
 6-311+G(2d,p)
 ****
 33  36  37 0
 6-311+G(2d,p)
 ****
 1  2  13  14  15  16  17  18  19  20  21  23  24  26 0
 3-21G
 ****
 27  28  34  35  38  39  40  41  42  43  44  45  46  47  48 0
 3-21G
 ****


