%nproc=1
%NoSave
%Mem=1900MB
#P OB98/GEN NMR

erre ene a

0 1
  C     -798.776    -896.320    3311.109
  O     -797.480    -895.980    3310.639
  H     -799.450    -895.470    3310.943
  H     -798.738    -896.540    3312.174
  H     -799.160    -897.200    3310.573
  P     -796.354    -897.120    3310.717
  C     -796.325    -897.700    3308.187
  O     -796.663    -898.120    3309.493
  C     -797.551    -897.230    3307.415
  O     -798.253    -896.200    3308.184
  C     -797.280    -896.650    3306.018
  O     -798.359    -897.040    3305.135
  C     -797.356    -895.150    3306.254
  O     -797.613    -894.420    3305.057
  C     -798.489    -895.090    3307.281
  N     -798.241    -890.120    3306.640
  C     -798.223    -891.120    3305.730
  N     -798.121    -890.770    3304.429
  N     -798.297    -892.420    3306.023
  C     -798.429    -892.600    3307.378
  C     -798.472    -891.710    3308.386
  C     -798.322    -890.270    3308.025
  O     -798.338    -889.340    3308.802
  N     -798.570    -892.290    3309.595
  C     -798.627    -893.600    3309.340
  N     -798.527    -893.830    3307.975
  O     -796.792    -897.960    3312.020
  O     -794.956    -896.630    3310.803
  H     -797.611    -893.470    3305.262
  H     -796.321    -897.630    3312.802
  H     -798.187    -889.130    3306.351
  H     -798.712    -894.380    3310.061
  H     -799.476    -895.230    3306.805
  H     -796.394    -894.780    3306.670
  H     -798.106    -889.840    3304.111
  H     -796.336    -896.970    3305.574
  H     -798.151    -891.500    3303.740
  H     -798.263    -898.100    3307.336
  H     -795.852    -898.530    3307.634
  H     -795.574    -896.860    3308.231
  P     -798.513    -898.590    3304.772
  C     -800.948    -899.310    3305.477
  O     -799.548    -899.260    3305.792
  O     -797.110    -899.220    3305.225
  O     -798.820    -898.820    3303.321
  H     -796.874    -900.000    3304.665
  H     -801.476    -899.791    3306.274
  H     -801.090    -899.861    3304.571
  H     -801.321    -898.315    3305.352

 6  7  8  9  10  11  12  13  14  15  26  29  33  34 0
 6-311+G(2d,p)
 ****
 36  38  39  40  41 0
 6-311+G(2d,p)
 ****
 1  2  3  4  5  16  17  18  19  20  21  22  23  24  25 0
 3-21G
 ****
 27  28  30  31  32  35  37  42  43  44  45  46  47 0
 3-21G
 ****
 48  49 0
 3-21G
 ****


