%nproc=1
%NoSave
%Mem=1900MB
#P OB98/GEN NMR

erre ene a

0 1
  C      -59.150      67.516      94.917
  O      -58.503      68.563      94.193
  P      -58.405      68.460      92.595
  C      -60.855      68.738      91.872
  O      -59.575      69.349      91.946
  C      -61.991      69.716      92.201
  O      -61.679      70.489      93.391
  C      -62.308      70.716      91.079
  O      -63.724      70.934      91.100
  C      -61.566      71.957      91.534
  O      -62.032      73.135      90.893
  C      -61.804      71.883      93.045
  N      -60.875      72.710      93.799
  C      -61.401      73.819      94.463
  O      -62.585      74.122      94.312
  N      -60.563      74.570      95.252
  C      -59.291      74.321      95.251
  N      -58.497      75.074      96.061
  C      -58.676      73.269      94.419
  C      -59.521      72.495      93.746
  O      -58.289      67.077      92.048
  O      -57.090      69.318      92.265
  H      -62.913      73.369      91.256
  H      -56.633      68.914      91.501
  H      -57.603      73.154      94.388
  H      -59.169      71.693      93.114
  H      -62.828      72.191      93.294
  H      -60.498      71.851      91.309
  H      -62.014      70.363      90.087
  H      -62.889      69.125      92.425
  H      -58.930      75.808      96.607
  H      -60.892      67.897      92.571
  H      -57.503      74.908      96.156
  H      -60.986      68.306      90.872
  P      -64.603      70.444      89.850
  C      -64.993      68.005      90.659
  O      -65.560      69.261      90.353
  O      -63.514      69.643      88.981
  O      -65.227      71.520      89.022
  H      -63.799      69.635      88.048
  H      -65.718      67.427      91.240
  H      -64.082      68.113      91.254
  H      -64.770      67.463      89.737
  H      -59.128      67.740      95.963
  H      -58.641      66.592      94.739
  H      -60.166      67.432      94.591

 3  4  5  6  7  8  9  10  11  12  13  23  27  28  29  30  32 0
 6-311+G(2d,p)
 ****
 34  35 0
 6-311+G(2d,p)
 ****
 1  2  14  15  16  17  18  19  20  21  22  24  25  26 0
 3-21G
 ****
 31  33  36  37  38  39  40  41  42  43  44  45  46 0
 3-21G
 ****


