%nproc=1
%NoSave
%Mem=1900MB
#P OB98/GEN NMR

erre ene a

0 1
  C     -332.364     980.554    -852.193
  O     -333.283     981.530    -852.670
  H     -332.666     979.578    -852.578
  H     -332.365     980.516    -851.103
  H     -331.353     980.782    -852.548
  P     -333.147     983.035    -852.112
  C     -333.672     984.127    -849.831
  O     -333.941     983.049    -850.717
  C     -334.595     984.035    -848.609
  O     -334.092     983.010    -847.695
  C     -334.632     985.323    -847.793
  O     -335.452     986.291    -848.439
  C     -335.160     984.806    -846.469
  O     -336.566     984.630    -846.495
  C     -334.426     983.455    -846.362
  N     -333.208     983.524    -845.536
  C     -333.342     983.089    -844.212
  O     -334.434     982.676    -843.789
  N     -332.255     983.153    -843.387
  C     -331.110     983.604    -843.842
  N     -330.080     983.652    -842.965
  C     -330.932     984.045    -845.231
  C     -332.009     983.985    -846.017
  O     -333.526     984.130    -853.057
  O     -331.609     983.122    -851.663
  H     -336.948     985.479    -846.815
  H     -331.050     983.428    -852.396
  H     -329.964     984.418    -845.575
  H     -331.954     984.302    -847.050
  H     -335.073     982.686    -845.932
  H     -334.923     985.500    -845.655
  H     -333.614     985.700    -847.647
  H     -335.593     983.738    -848.942
  H     -330.249     983.341    -842.021
  H     -333.875     985.059    -850.374
  H     -329.119     983.887    -843.242
  H     -332.618     984.124    -849.525
  P     -335.275     987.843    -848.104
  C     -335.448     989.200    -845.905
  O     -335.844     988.037    -846.602
  O     -335.822     988.790    -849.111
  O     -333.684     988.003    -847.896
  H     -333.205     987.975    -848.750
  H     -335.893     989.202    -844.932
  H     -335.769     990.066    -846.445
  H     -334.382     989.213    -845.810

 6  7  8  9  10  11  12  13  14  15  16  26  30  31  32  33  35 0
 6-311+G(2d,p)
 ****
 37  38 0
 6-311+G(2d,p)
 ****
 1  2  3  4  5  17  18  19  20  21  22  23  24  25 0
 3-21G
 ****
 27  28  29  34  36  39  40  41  42  43  44  45  46 0
 3-21G
 ****


