%nproc=1
%NoSave
%Mem=1900MB
#P OB98/GEN NMR

erre ene a

0 1
  C      460.424    -444.553    -362.585
  O      460.447    -443.356    -363.357
  P      459.397    -442.201    -362.992
  C      457.839    -442.655    -365.013
  O      458.712    -441.739    -364.370
  C      458.313    -442.955    -366.435
  O      458.252    -441.729    -367.224
  C      459.742    -443.487    -366.544
  O      459.788    -444.393    -367.648
  C      460.547    -442.250    -366.879
  O      461.808    -442.561    -367.472
  C      459.561    -441.525    -367.797
  N      462.417    -437.993    -370.141
  C      462.354    -439.333    -370.288
  N      461.562    -440.211    -369.629
  C      460.785    -439.565    -368.733
  C      460.769    -438.208    -368.451
  C      461.638    -437.400    -369.207
  N      461.698    -436.030    -369.075
  N      459.862    -437.929    -367.454
  C      459.338    -439.101    -367.131
  N      459.848    -440.114    -367.897
  O      460.346    -440.971    -362.613
  O      458.451    -442.522    -361.884
  H      461.643    -443.039    -368.309
  H      460.276    -440.774    -361.655
  H      463.014    -439.759    -371.042
  H      458.595    -439.261    -366.366
  H      459.558    -441.945    -368.809
  H      460.747    -441.670    -365.970
  H      460.101    -443.986    -365.628
  H      457.607    -443.663    -366.895
  H      456.840    -442.212    -365.061
  H      462.237    -435.509    -369.743
  H      460.988    -435.563    -368.516
  H      457.784    -443.582    -364.435
  P      460.892    -445.556    -367.603
  C      461.892    -445.150    -369.957
  O      461.145    -446.011    -369.111
  O      460.101    -446.799    -366.962
  O      462.105    -445.204    -366.809
  H      460.726    -447.376    -366.497
  H      462.468    -445.757    -370.664
  H      462.581    -444.515    -369.393
  H      461.203    -444.514    -370.522
  H      461.176    -445.224    -362.944
  H      459.463    -445.015    -362.672
  H      460.616    -444.319    -361.559

 3  4  5  6  7  8  9  10  11  12  22  25  29  30  31  32 0
 6-311+G(2d,p)
 ****
 33  36  37 0
 6-311+G(2d,p)
 ****
 1  2  13  14  15  16  17  18  19  20  21  23  24  26 0
 3-21G
 ****
 27  28  34  35  38  39  40  41  42  43  44  45  46  47  48 0
 3-21G
 ****


