%nproc=1
%NoSave
%Mem=1900MB
#P OB98/GEN NMR

erre ene a

0 1
  C      -97.083    -172.275     -18.985
  O      -98.204    -171.507     -18.606
  H      -96.274    -172.082     -18.271
  H      -96.736    -171.993     -19.982
  H      -97.322    -173.342     -18.958
  P      -99.477    -171.451     -19.588
  C      -99.893    -173.981     -19.415
  O     -100.410    -172.687     -19.126
  C     -100.285    -174.996     -18.340
  O     -100.088    -174.412     -17.026
  C     -101.747    -175.458     -18.426
  O     -101.801    -176.882     -18.305
  C     -102.405    -174.798     -17.221
  O     -103.572    -175.497     -16.793
  C     -101.237    -174.765     -16.229
  N     -101.444    -173.822     -15.132
  C     -101.974    -174.350     -13.946
  O     -102.268    -175.546     -13.880
  N     -102.186    -173.510     -12.885
  C     -101.950    -172.240     -13.011
  N     -102.192    -171.459     -11.922
  C     -101.438    -171.631     -14.257
  C     -101.206    -172.474     -15.264
  O      -99.142    -171.430     -21.042
  O     -100.305    -170.173     -19.101
  H     -104.018    -174.961     -16.099
  H     -100.911    -169.881     -19.824
  H     -101.266    -170.567     -14.316
  H     -100.819    -172.117     -16.217
  H     -101.062    -175.763     -15.800
  H     -102.701    -173.773     -17.481
  H     -102.238    -175.171     -19.354
  H      -99.594    -175.846     -18.401
  H     -102.542    -171.913     -11.087
  H      -98.802    -173.913     -19.498
  H     -102.052    -170.457     -11.909
  H     -100.307    -174.306     -20.379
  P     -101.717    -177.714     -19.679
  C      -99.449    -178.599     -20.571
  O     -100.457    -178.707     -19.577
  O     -101.251    -176.612     -20.740
  O     -103.007    -178.357     -20.072
  H     -102.015    -176.301     -21.261
  H      -98.679    -179.316     -20.377
  H      -99.032    -177.614     -20.551
  H      -99.876    -178.786     -21.534

 6  7  8  9  10  11  12  13  14  15  16  26  30  31  32  33  35 0
 6-311+G(2d,p)
 ****
 37  38 0
 6-311+G(2d,p)
 ****
 1  2  3  4  5  17  18  19  20  21  22  23  24  25 0
 3-21G
 ****
 27  28  29  34  36  39  40  41  42  43  44  45  46 0
 3-21G
 ****


