%nproc=1
%NoSave
%Mem=1900MB
#P OB98/GEN NMR

erre ene a

0 1
  C     -125.395     -70.578    -340.443
  O     -126.089     -71.302    -341.441
  H     -125.942     -70.667    -339.500
  H     -125.337     -69.521    -340.718
  H     -124.390     -70.984    -340.311
  P     -125.471     -71.241    -342.921
  C     -123.606     -72.892    -342.205
  O     -123.922     -71.632    -342.780
  C     -122.220     -73.351    -342.651
  O     -121.774     -74.471    -341.859
  C     -122.143     -73.786    -344.110
  O     -121.971     -72.669    -344.965
  C     -120.922     -74.698    -344.080
  O     -119.701     -73.927    -344.109
  C     -121.085     -75.408    -342.730
  N     -121.450     -80.028    -340.726
  C     -120.537     -79.023    -340.484
  N     -119.554     -79.294    -339.595
  N     -120.572     -77.853    -341.069
  C     -121.568     -77.741    -341.977
  C     -122.536     -78.662    -342.309
  C     -122.518     -79.933    -341.613
  O     -123.345     -80.833    -341.721
  N     -123.389     -78.170    -343.262
  C     -122.920     -76.967    -343.530
  N     -121.812     -76.661    -342.777
  O     -125.427     -69.672    -343.243
  O     -126.235     -71.981    -343.964
  H     -119.834     -73.139    -344.666
  H     -125.651     -69.537    -344.182
  H     -121.391     -80.896    -340.225
  H     -123.346     -76.278    -344.246
  H     -120.115     -75.629    -342.266
  H     -120.890     -75.355    -344.950
  H     -119.308     -80.240    -339.344
  H     -123.025     -74.374    -344.395
  H     -118.846     -78.582    -339.475
  H     -121.523     -72.525    -342.460
  H     -124.355     -73.626    -342.527
  H     -123.635     -72.808    -341.115
  P     -122.034     -72.909    -346.548
  C     -124.552     -72.339    -346.846
  O     -123.539     -73.332    -346.925
  O     -121.205     -74.264    -346.737
  O     -121.454     -71.807    -347.370
  H     -120.327     -74.065    -347.117
  H     -125.493     -72.766    -347.124
  H     -124.315     -71.534    -347.510
  H     -124.611     -71.968    -345.844

 6  7  8  9  10  11  12  13  14  15  26  29  33  34 0
 6-311+G(2d,p)
 ****
 36  38  39  40  41 0
 6-311+G(2d,p)
 ****
 1  2  3  4  5  16  17  18  19  20  21  22  23  24  25 0
 3-21G
 ****
 27  28  30  31  32  35  37  42  43  44  45  46  47 0
 3-21G
 ****
 48  49 0
 3-21G
 ****


