%nproc=1
%NoSave
%Mem=1900MB
#P OB98/GEN NMR

erre ene a

0 1
  C      -16.471    -431.445     169.828
  O      -17.465    -432.213     169.135
  P      -17.358    -433.808     169.223
  C      -19.085    -434.103     171.170
  O      -17.735    -434.187     170.735
  C      -19.632    -435.503     171.456
  O      -18.929    -436.106     172.568
  C      -21.099    -435.536     171.846
  O      -21.935    -435.332     170.708
  C      -21.204    -436.919     172.479
  O      -21.320    -437.926     171.461
  C      -19.837    -437.043     173.188
  N      -19.924    -436.834     174.629
  C      -20.737    -437.743     175.326
  O      -21.364    -438.638     174.773
  N      -20.821    -437.547     176.676
  C      -20.207    -436.549     177.387
  O      -20.302    -436.438     178.606
  C      -19.404    -435.605     176.593
  C      -19.299    -435.790     175.277
  O      -15.777    -434.018     169.142
  O      -18.145    -434.505     168.163
  H      -15.281    -433.314     169.590
  H      -20.625    -437.729     170.796
  H      -21.392    -438.192     177.196
  H      -18.924    -434.791     177.119
  H      -18.723    -435.096     174.673
  H      -19.414    -438.039     173.016
  H      -22.070    -437.014     173.128
  H      -21.305    -434.763     172.600
  H      -19.454    -436.119     170.567
  H      -19.699    -433.635     170.395
  H      -19.136    -433.464     172.056
  P      -23.076    -434.210     170.847
  C      -21.846    -432.179     169.717
  O      -22.320    -432.798     170.900
  O      -23.564    -434.436     172.352
  O      -24.157    -434.314     169.815
  H      -22.841    -434.565     172.973
  H      -21.691    -431.128     169.912
  H      -22.563    -432.299     168.900
  H      -20.891    -432.642     169.427
  H      -16.662    -430.402     169.685
  H      -15.502    -431.686     169.443
  H      -16.507    -431.674     170.872

 3  4  5  6  7  8  9  10  11  12  13  24  28  29  30  31  32 0
 6-311+G(2d,p)
 ****
 33  34 0
 6-311+G(2d,p)
 ****
 1  2  14  15  16  17  18  19  20  21  22  23  25  26  27 0
 3-21G
 ****
 35  36  37  38  39  40  41  42  43  44  45 0
 3-21G
 ****


