%nproc=1
%NoSave
%Mem=1900MB
#P OB98/GEN NMR

erre ene a

0 1
  C       93.428      28.990       9.558
  O       93.379      29.239       8.169
  H       94.448      29.168       9.909
  H       93.161      27.952       9.771
  H       92.753      29.666      10.091
  P       92.003      28.986       7.389
  C       92.785      27.566       5.381
  O       92.371      28.851       5.833
  C       93.972      27.702       4.420
  O       95.171      27.852       5.219
  C       94.144      26.469       3.520
  O       94.208      26.794       2.133
  C       95.340      25.752       4.134
  O       96.069      24.945       3.233
  C       96.144      26.895       4.763
  N       97.010      26.475       5.862
  C       98.261      25.965       5.530
  O       98.705      25.864       4.388
  N       99.036      25.564       6.589
  C       98.688      25.615       7.905
  O       99.427      25.247       8.810
  C       97.346      26.142       8.190
  C       96.579      26.540       7.172
  O       90.904      29.948       7.689
  O       91.599      27.490       7.793
  H       95.450      24.288       2.854
  H       90.895      27.513       8.467
  H       99.949      25.204       6.361
  H       97.032      26.187       9.224
  H       95.583      26.936       7.347
  H       96.771      27.379       4.014
  H       94.973      25.094       4.930
  H       93.267      25.815       3.584
  H       93.848      28.619       3.834
  H       91.937      27.098       4.873
  H       93.073      26.949       6.240
  P       93.517      25.950       0.970
  C       95.380      26.194      -0.859
  O       94.060      26.495      -0.433
  O       92.043      25.762       1.097
  O       94.208      24.498       1.105
  H       93.532      23.842       0.838
  H       95.558      26.643      -1.814
  H       95.497      25.133      -0.936
  H       96.081      26.579      -0.148

 6  7  8  9  10  11  12  13  14  15  16  26  31  32  33  34  35 0
 6-311+G(2d,p)
 ****
 36  37 0
 6-311+G(2d,p)
 ****
 1  2  3  4  5  17  18  19  20  21  22  23  24  25 0
 3-21G
 ****
 27  28  29  30  38  39  40  41  42  43  44  45 0
 3-21G
 ****


