%nproc=1
%NoSave
%Mem=1900MB
#P OB98/GEN NMR

erre ene a

0 1
  C       22.051    -380.725     183.611
  O       21.771    -379.390     183.226
  H       23.137    -380.853     183.665
  H       21.651    -381.421     182.865
  H       21.617    -380.934     184.591
  P       20.225    -378.977     183.124
  C       19.825    -376.404     183.122
  O       20.192    -377.556     182.373
  C       19.574    -375.231     182.180
  O       20.826    -374.835     181.566
  C       18.629    -375.544     181.024
  O       17.274    -375.512     181.422
  C       19.001    -374.446     180.037
  O       18.314    -373.221     180.330
  C       20.504    -374.278     180.266
  N       22.592    -373.692     175.653
  C       21.909    -372.836     176.455
  N       21.406    -373.073     177.684
  C       21.667    -374.330     178.067
  C       22.339    -375.311     177.361
  C       22.819    -374.955     176.090
  N       23.473    -375.836     175.253
  N       22.362    -376.496     178.076
  C       21.725    -376.230     179.199
  N       21.294    -374.936     179.243
  O       19.851    -378.615     184.637
  O       19.322    -380.020     182.554
  H       17.373    -373.366     180.085
  H       19.453    -379.393     185.073
  H       21.752    -371.842     176.045
  H       21.552    -376.940     180.001
  H       20.807    -373.221     180.285
  H       18.729    -374.731     179.014
  H       18.884    -376.518     180.587
  H       19.202    -374.383     182.769
  H       20.640    -376.149     183.810
  H       18.920    -376.633     183.707
  H       23.770    -375.515     174.350
  H       23.555    -376.811     175.536
  P       16.460    -376.891     181.491
  C       14.424    -375.892     182.773
  O       14.899    -376.534     181.597
  O       16.813    -377.456     182.949
  O       16.799    -377.867     180.422
  H       17.507    -378.141     182.891
  H       13.371    -375.724     182.687
  H       14.925    -374.955     182.895
  H       14.618    -376.514     183.622

 6  7  8  9  10  11  12  13  14  15  25  28  32  33  34  35 0
 6-311+G(2d,p)
 ****
 36  37  40 0
 6-311+G(2d,p)
 ****
 1  2  3  4  5  16  17  18  19  20  21  22  23  24 0
 3-21G
 ****
 26  27  29  30  31  38  39 41  42  43  44  45  46  47  48 0
 3-21G
 ****


