%nproc=1
%NoSave
%Mem=1900MB
#P OB98/GEN NMR

erre ene a

0 1
  C      247.444    -232.032    -326.326
  O      248.696    -232.631    -326.042
  H      247.034    -231.624    -325.399
  H      246.753    -232.781    -326.722
  H      247.569    -231.220    -327.048
  P      249.473    -233.280    -327.287
  C      251.745    -232.065    -326.887
  O      250.596    -232.217    -327.709
  C      253.014    -232.020    -327.747
  O      253.201    -233.322    -328.374
  C      252.960    -230.985    -328.883
  O      254.305    -230.554    -329.150
  C      252.453    -231.825    -330.043
  O      252.632    -231.157    -331.269
  C      253.257    -233.099    -329.800
  N      254.420    -236.805    -333.124
  C      255.174    -235.841    -332.555
  N      254.797    -234.897    -331.671
  C      253.494    -235.027    -331.360
  C      252.605    -235.965    -331.850
  C      253.113    -236.888    -332.781
  N      252.349    -237.868    -333.367
  N      251.347    -235.781    -331.301
  C      251.483    -234.749    -330.495
  N      252.758    -234.256    -330.504
  O      248.403    -233.196    -328.474
  O      249.971    -234.671    -327.078
  H      252.313    -231.706    -332.016
  H      247.920    -234.041    -328.546
  H      256.218    -235.822    -332.856
  H      250.693    -234.315    -329.893
  H      254.312    -232.972    -330.074
  H      251.379    -232.017    -329.944
  H      252.339    -230.115    -328.649
  H      253.881    -231.855    -327.095
  H      251.793    -232.915    -326.198
  H      251.660    -231.139    -326.312
  H      252.784    -238.480    -334.039
  H      251.366    -237.930    -333.136
  P      254.859    -229.226    -328.435
  C      257.223    -230.129    -327.767
  O      255.954    -229.647    -327.341
  O      253.616    -228.804    -327.511
  O      255.242    -228.108    -329.348
  H      253.629    -227.837    -327.373
  H      257.822    -230.360    -326.911
  H      257.712    -229.378    -328.352
  H      257.090    -231.011    -328.358

 6  7  8  9  10  11  12  13  14  15  25  28  32  33  34  35 0
 6-311+G(2d,p)
 ****
 36  37  40 0
 6-311+G(2d,p)
 ****
 1  2  3  4  5  16  17  18  19  20  21  22  23  24 0
 3-21G
 ****
 26  27  29  30  31  38  39 41  42  43  44  45  46  47  48 0
 3-21G
 ****


