%nproc=1
%NoSave
%Mem=1900MB
#P OB98/GEN NMR

erre ene a

0 1
  C      -42.851      -3.368     -33.559
  O      -43.163      -4.465     -34.399
  P      -42.006      -5.072     -35.329
  C      -43.327      -4.444     -37.512
  O      -42.136      -4.344     -36.753
  C      -43.289      -3.469     -38.693
  O      -43.025      -2.129     -38.189
  C      -42.215      -3.784     -39.743
  O      -42.755      -3.426     -41.023
  C      -41.083      -2.845     -39.360
  O      -40.193      -2.592     -40.436
  C      -41.875      -1.618     -38.894
  N      -41.104      -0.720     -38.034
  C      -41.502       0.612     -37.962
  O      -42.449       1.080     -38.593
  N      -40.747       1.415     -37.145
  C      -39.623       1.043     -36.466
  O      -38.973       1.810     -35.763
  C      -39.222      -0.363     -36.620
  C      -39.974      -1.167     -37.374
  O      -42.562      -6.547     -35.592
  O      -40.648      -5.009     -34.716
  H      -43.531      -6.581     -35.670
  H      -39.476      -2.020     -40.107
  H      -41.040       2.376     -37.047
  H      -38.326      -0.692     -36.107
  H      -39.698      -2.207     -37.504
  H      -42.251      -1.063     -39.762
  H      -40.507      -3.286     -38.538
  H      -41.925      -4.838     -39.743
  H      -44.284      -3.451     -39.156
  H      -44.184      -4.201     -36.877
  H      -43.449      -5.475     -37.861
  P      -42.564      -4.459     -42.243
  C      -40.747      -2.866     -43.254
  O      -41.126      -4.174     -42.889
  O      -43.570      -3.817     -43.317
  O      -42.888      -5.880     -41.921
  H      -43.450      -2.860     -43.422
  H      -39.657      -2.828     -43.349
  H      -41.056      -2.136     -42.501
  H      -41.194      -2.609     -44.219
  H      -43.722      -3.082     -33.007
  H      -42.521      -2.544     -34.156
  H      -42.074      -3.649     -32.879

 3  4  5  6  7  8  9  10  11  12  13  24  28  29  30  31  32 0
 6-311+G(2d,p)
 ****
 33  34 0
 6-311+G(2d,p)
 ****
 1  2  14  15  16  17  18  19  20  21  22  23  25  26  27 0
 3-21G
 ****
 35  36  37  38  39  40  41  42  43  44  45 0
 3-21G
 ****


