%nproc=1
%NoSave
%Mem=1900MB
#P OB98/GEN NMR

erre ene a

0 1
  C      131.785    -384.522    -182.772
  O      131.615    -383.449    -181.855
  P      130.712    -383.710    -180.553
  C      132.334    -382.902    -178.694
  O      131.743    -384.010    -179.361
  C      133.409    -383.375    -177.719
  O      134.489    -384.017    -178.435
  C      134.065    -382.267    -176.900
  O      133.277    -381.895    -175.775
  C      135.340    -382.944    -176.455
  O      135.069    -383.816    -175.337
  C      135.717    -383.776    -177.692
  N      140.689    -383.192    -178.740
  C      140.052    -383.872    -177.768
  N      138.725    -383.977    -177.547
  C      138.035    -383.239    -178.442
  C      138.558    -382.451    -179.468
  C      139.957    -382.457    -179.611
  N      140.606    -381.774    -180.616
  N      137.544    -381.842    -180.172
  C      136.432    -382.239    -179.591
  N      136.678    -383.103    -178.544
  O      130.064    -385.155    -180.847
  O      129.676    -382.676    -180.280
  H      134.830    -383.247    -174.581
  H      129.243    -385.259    -180.336
  H      140.683    -384.428    -177.086
  H      135.433    -381.964    -179.899
  H      136.137    -384.757    -177.429
  H      136.108    -382.239    -176.122
  H      134.305    -381.396    -177.535
  H      132.960    -384.126    -177.054
  H      131.561    -382.366    -178.139
  H      141.589    -381.975    -180.764
  H      140.041    -381.401    -181.377
  H      132.773    -382.222    -179.446
  P      132.382    -380.578    -175.915
  C      130.110    -381.831    -175.975
  O      131.043    -381.038    -176.680
  O      133.170    -379.715    -177.016
  O      132.185    -379.828    -174.643
  H      132.983    -378.760    -176.901
  H      129.147    -381.800    -176.514
  H      129.948    -381.449    -174.966
  H      130.441    -382.868    -175.937
  H      132.406    -384.203    -183.583
  H      130.830    -384.823    -183.150
  H      132.247    -385.348    -182.273

 3  4  5  6  7  8  9  10  11  12  22  25  29  30  31  32 0
 6-311+G(2d,p)
 ****
 33  36  37 0
 6-311+G(2d,p)
 ****
 1  2  13  14  15  16  17  18  19  20  21  23  24  26 0
 3-21G
 ****
 27  28  34  35  38  39  40  41  42  43  44  45  46  47  48 0
 3-21G
 ****


