%nproc=1
%NoSave
%Mem=1900MB
#P OB98/GEN NMR

erre ene a

0 1
  C      188.927     163.089       3.266
  O      190.209     163.086       3.859
  H      188.157     162.908       4.022
  H      188.753     164.067       2.810
  H      188.872     162.322       2.488
  P      190.612     161.766       4.677
  C      192.928     160.855       5.399
  O      192.173     161.516       4.395
  C      194.288     160.445       4.850
  O      194.137     159.393       3.875
  C      195.046     161.555       4.130
  O      195.676     162.446       5.039
  C      196.065     160.738       3.349
  O      197.158     160.374       4.212
  C      195.262     159.486       2.963
  N      196.462     158.956      -2.001
  C      197.210     158.867      -0.878
  N      196.829     159.030       0.404
  C      195.515     159.300       0.480
  C      194.627     159.421      -0.575
  C      195.148     159.243      -1.868
  N      194.379     159.354      -3.006
  N      193.356     159.689      -0.114
  C      193.471     159.730       1.197
  N      194.760     159.507       1.604
  O      189.896     160.588       3.860
  O      190.210     161.757       6.114
  H      197.680     159.702       3.734
  H      189.594     159.905       4.489
  H      198.260     158.628      -1.031
  H      192.655     159.911       1.886
  H      195.854     158.573       3.094
  H      196.487     161.276       2.497
  H      194.397     162.088       3.428
  H      194.883     160.047       5.684
  H      192.391     159.961       5.730
  H      194.758     159.024      -3.878
  H      193.392     159.561      -2.895
  H      193.049     161.532       6.253
  P      195.910     163.959       4.550
  C      196.394     166.196       5.770
  O      195.997     164.836       5.890
  O      194.489     164.364       3.936
  O      197.014     164.143       3.567
  H      194.604     165.073       3.273
  H      196.406     166.651       6.739
  H      195.702     166.715       5.141
  H      197.373     166.245       5.340

 6  7  8  9  10  11  12  13  14  15  25  28  32  33  34  35 0
 6-311+G(2d,p)
 ****
 36  39  40 0
 6-311+G(2d,p)
 ****
 1  2  3  4  5  16  17  18  19  20  21  22  23  24 0
 3-21G
 ****
 26  27  29  30  31  37  38  41  42  43  44  45  46  47  48 0
 3-21G
 ****


