%nproc=1
%NoSave
%Mem=1900MB
#P OB98/GEN NMR

erre ene a

0 1
  C     -101.295      61.704     143.652
  O     -101.275      62.660     144.700
  P     -102.614      63.428     145.147
  C     -104.048      65.294     144.108
  O     -102.818      64.581     144.049
  C     -103.942      66.594     143.310
  O     -103.008      67.468     143.986
  C     -103.406      66.457     141.882
  O     -104.385      66.111     140.914
  C     -102.928      67.885     141.626
  O     -104.054      68.727     141.305
  C     -102.340      68.281     142.984
  N      -97.759      69.895     141.353
  C      -99.016      70.350     141.123
  N     -100.188      69.852     141.579
  C      -99.972      68.799     142.389
  C      -98.750      68.227     142.718
  C      -97.603      68.821     142.162
  N      -96.323      68.370     142.417
  N      -98.931      67.141     143.558
  C     -100.235      67.077     143.738
  N     -100.906      68.058     143.058
  O     -102.628      63.873     146.568
  O     -103.791      62.400     144.808
  H     -104.303      68.529     140.382
  H     -104.612      62.657     145.277
  H      -99.090      71.226     140.482
  H     -100.739      66.334     144.343
  H     -102.532      69.333     143.237
  H     -102.226      67.953     140.787
  H     -102.544      65.777     141.839
  H     -104.924      67.084     143.311
  H     -104.261      65.533     145.154
  H      -95.557      68.935     142.079
  H      -96.197      67.678     143.141
  H     -104.859      64.662     143.726
  P     -103.911      65.172     139.694
  C     -101.880      65.334     138.051
  O     -102.758      65.993     138.938
  O     -105.018      64.668     138.831
  O     -103.101      64.002     140.444
  H     -102.276      64.283     140.872
  H     -101.283      66.088     137.524
  H     -102.432      64.753     137.313
  H     -101.202      64.680     138.610
  H     -100.310      61.310     143.510
  H     -101.626      62.172     142.749
  H     -101.964      60.909     143.907

 3  4  5  6  7  8  9  10  11  12  22  25  29  30  31  32 0
 6-311+G(2d,p)
 ****
 33  36  37 0
 6-311+G(2d,p)
 ****
 1  2  13  14  15  16  17  18  19  20  21  23  24  26 0
 3-21G
 ****
 27  28  34  35  38  39  40  41  42  43  44  45  46  47  48 0
 3-21G
 ****


