%nproc=1
%NoSave
%Mem=1900MB
#P OB98/GEN NMR

erre ene a

0 1
  C      226.485     292.025    -707.802
  O      226.025     292.209    -706.464
  P      227.133     292.685    -705.401
  C      226.297     294.994    -704.577
  O      227.179     294.290    -705.436
  C      226.668     296.480    -704.503
  O      227.857     296.667    -703.677
  C      226.967     297.108    -705.872
  O      226.497     298.465    -705.812
  C      228.484     297.061    -705.919
  O      229.045     297.911    -706.910
  C      228.798     297.423    -704.471
  N      233.581     299.202    -704.377
  C      232.424     299.732    -704.840
  N      231.187     299.189    -704.836
  C      231.210     297.971    -704.260
  C      232.310     297.304    -703.744
  C      233.544     297.970    -703.814
  N      234.723     297.430    -703.363
  N      231.933     296.054    -703.265
  C      230.647     295.961    -703.558
  N      230.156     297.123    -704.084
  O      228.513     292.247    -706.081
  O      226.953     292.090    -704.044
  H      228.582     298.769    -706.915
  H      228.834     291.408    -705.695
  H      232.510     300.722    -705.283
  H      230.039     295.085    -703.414
  H      228.631     298.487    -704.265
  H      228.810     296.040    -706.142
  H      226.482     296.598    -706.708
  H      225.842     297.016    -704.016
  H      226.331     294.567    -703.572
  H      235.560     297.987    -703.461
  H      234.740     296.511    -702.946
  H      225.268     294.862    -704.935
  P      224.954     298.763    -706.138
  C      224.358     300.119    -704.044
  O      224.255     298.867    -704.699
  O      224.467     297.310    -706.618
  O      224.684     299.851    -707.121
  H      224.736     296.625    -705.981
  H      223.776     300.076    -703.118
  H      223.968     300.914    -704.680
  H      225.405     300.319    -703.793
  H      225.670     291.710    -708.419
  H      227.252     291.279    -707.816
  H      226.878     292.948    -708.174

 3  4  5  6  7  8  9  10  11  12  22  25  29  30  31  32 0
 6-311+G(2d,p)
 ****
 33  36  37 0
 6-311+G(2d,p)
 ****
 1  2  13  14  15  16  17  18  19  20  21  23  24  26 0
 3-21G
 ****
 27  28  34  35  38  39  40  41  42  43  44  45  46  47  48 0
 3-21G
 ****


