%nproc=1
%NoSave
%Mem=1900MB
#P OB98/GEN NMR

erre ene a

0 1
  C     -413.878    -915.452     -81.197
  O     -415.165    -915.888     -81.584
  H     -413.917    -915.144     -80.152
  H     -413.564    -914.605     -81.813
  H     -413.160    -916.273     -81.298
  P     -415.316    -916.427     -83.097
  C     -417.732    -915.511     -83.460
  O     -416.889    -916.647     -83.326
  C     -419.058    -915.917     -84.134
  O     -418.745    -916.535     -85.419
  C     -419.872    -916.948     -83.323
  O     -421.267    -916.740     -83.605
  C     -419.427    -918.257     -83.950
  O     -420.321    -919.286     -83.620
  C     -419.369    -917.836     -85.414
  N     -417.069    -918.468     -89.929
  C     -417.656    -917.385     -89.356
  N     -418.242    -917.298     -88.144
  C     -418.153    -918.476     -87.489
  C     -417.590    -919.658     -87.946
  C     -417.031    -919.628     -89.239
  N     -416.456    -920.723     -89.835
  N     -417.724    -920.653     -86.990
  C     -418.346    -920.073     -85.979
  N     -418.628    -918.765     -86.238
  O     -414.723    -917.912     -83.006
  O     -414.635    -915.614     -84.141
  H     -421.194    -919.156     -84.054
  H     -413.776    -917.908     -83.227
  H     -417.653    -916.485     -89.957
  H     -418.633    -920.561     -85.058
  H     -420.374    -917.735     -85.863
  H     -418.436    -918.554     -83.581
  H     -419.700    -916.877     -82.243
  H     -419.641    -915.014     -84.345
  H     -417.223    -914.765     -84.060
  H     -417.943    -915.103     -82.466
  H     -416.103    -920.630     -90.774
  H     -416.453    -921.610     -89.342
  P     -422.228    -916.203     -82.433
  C     -423.595    -918.406     -82.150
  O     -423.614    -917.016     -82.423
  O     -422.685    -914.770     -83.014
  O     -421.591    -916.038     -81.091
  H     -422.615    -914.092     -82.301
  H     -424.593    -918.789     -82.182
  H     -423.180    -918.573     -81.178
  H     -422.997    -918.905     -82.884

 6  7  8  9  10  11  12  13  14  15  25  28  32  33  34  35 0
 6-311+G(2d,p)
 ****
 36  37  40 0
 6-311+G(2d,p)
 ****
 1  2  3  4  5  16  17  18  19  20  21  22  23  24 0
 3-21G
 ****
 26  27  29  30  31  38  39 41  42  43  44  45  46  47  48 0
 3-21G
 ****


