%nproc=1
%NoSave
%Mem=1900MB
#P OB98/GEN NMR

erre ene a

0 1
  C      -33.447     -40.732      42.113
  O      -32.299     -39.926      42.309
  P      -32.491     -38.342      42.441
  C      -31.715     -37.962      39.989
  O      -32.723     -37.755      40.966
  C      -31.888     -36.978      38.829
  O      -33.030     -37.387      38.016
  C      -32.139     -35.528      39.271
  O      -31.526     -34.668      38.300
  C      -33.649     -35.412      39.172
  O      -34.102     -34.069      39.097
  C      -33.901     -36.243      37.910
  N      -35.300     -36.641      37.761
  C      -36.241     -35.628      37.620
  O      -35.966     -34.429      37.614
  N      -37.547     -36.034      37.544
  C      -38.001     -37.313      37.684
  O      -39.192     -37.596      37.724
  C      -36.960     -38.342      37.831
  C      -35.679     -37.967      37.861
  O      -31.026     -37.826      42.829
  O      -33.514     -37.919      43.441
  H      -35.073     -34.092      39.015
  H      -30.967     -37.658      43.787
  H      -38.243     -35.313      37.429
  H      -37.284     -39.371      37.924
  H      -34.892     -38.703      37.990
  H      -33.586     -35.682      37.020
  H      -34.107     -35.874      40.053
  H      -31.761     -35.304      40.273
  H      -30.999     -37.032      38.189
  H      -31.789     -38.981      39.608
  H      -30.728     -37.846      40.449
  P      -30.871     -33.296      38.819
  C      -32.911     -31.820      38.117
  O      -32.084     -32.305      39.153
  O      -30.267     -32.718      37.451
  O      -29.849     -33.485      39.891
  H      -30.877     -32.816      36.702
  H      -33.044     -32.563      37.327
  H      -32.469     -30.916      37.694
  H      -33.891     -31.570      38.534
  H      -33.154     -41.759      42.045
  H      -33.937     -40.440      41.208
  H      -34.116     -40.606      42.938

 3  4  5  6  7  8  9  10  11  12  13  23  28  29  30  31  32 0
 6-311+G(2d,p)
 ****
 33  34 0
 6-311+G(2d,p)
 ****
 1  2  14  15  16  17  18  19  20  21  22  24  25  26 0
 3-21G
 ****
 27  35  36  37  38  39  40  41  42  43  44  45 0
 3-21G
 ****


