%nproc=1
%NoSave
%Mem=1900MB
#P OB98/GEN NMR

erre ene a

0 1
  C       53.040     674.671    1054.816
  O       51.917     674.371    1053.989
  P       50.640     673.631    1054.607
  C       51.769     671.495    1053.765
  O       50.554     672.184    1053.931
  C       51.525     670.004    1053.539
  O       51.078     669.369    1054.765
  C       50.441     669.719    1052.495
  O       50.922     669.896    1051.176
  C       50.078     668.270    1052.846
  O       51.031     667.341    1052.238
  C       50.212     668.260    1054.365
  N       46.009     665.721    1055.762
  C       47.056     665.369    1054.947
  N       48.113     666.125    1054.608
  C       48.029     667.347    1055.147
  C       47.026     667.864    1055.960
  C       45.981     666.958    1056.283
  N       44.943     667.275    1057.145
  N       47.265     669.164    1056.292
  C       48.426     669.469    1055.690
  N       48.939     668.377    1055.049
  O       49.369     674.433    1054.612
  O       51.081     673.303    1056.123
  H       50.874     666.479    1052.627
  H       50.479     673.749    1056.737
  H       47.025     664.364    1054.553
  H       48.893     670.431    1055.738
  H       50.715     667.346    1054.731
  H       49.084     667.981    1052.478
  H       49.568     670.358    1052.669
  H       52.481     669.519    1053.254
  H       52.379     671.627    1054.658
  H       44.334     666.514    1057.419
  H       45.065     668.056    1057.766
  H       52.322     671.917    1052.919
  P       50.865     671.349    1050.496
  C       48.480     671.125    1049.543
  O       49.876     671.226    1049.243
  O       52.184     671.982    1050.181
  O       50.009     672.224    1051.538
  H       50.315     673.146    1051.491
  H       48.259     670.086    1049.864
  H       47.913     671.343    1048.664
  H       48.206     671.811    1050.336
  H       53.791     675.162    1054.233
  H       53.438     673.764    1055.219
  H       52.733     675.312    1055.616

 3  4  5  6  7  8  9  10  11  12  22  25  29  30  31  32 0
 6-311+G(2d,p)
 ****
 33  36  37 0
 6-311+G(2d,p)
 ****
 1  2  13  14  15  16  17  18  19  20  21  23  24  26 0
 3-21G
 ****
 27  28  34  35  38  39  40  41  42  43  44  45  46  47  48 0
 3-21G
 ****


