%nproc=1
%NoSave
%Mem=1900MB
#P OB98/GEN NMR

erre ene a

0 1
  C       98.083    -395.475     183.918
  O       97.775    -395.815     185.270
  P       98.763    -396.769     186.090
  C      101.312    -396.328     186.158
  O      100.022    -395.918     186.599
  C      102.391    -395.469     186.824
  O      102.191    -394.060     186.553
  C      102.379    -395.574     188.345
  O      102.789    -396.806     188.901
  C      103.145    -394.329     188.761
  O      104.554    -394.539     188.709
  C      102.703    -393.318     187.680
  N      101.718    -392.356     188.176
  C      101.368    -391.331     187.302
  O      101.874    -391.190     186.190
  N      100.436    -390.443     187.766
  C       99.860    -390.459     189.003
  O       99.046    -389.623     189.378
  C      100.286    -391.551     189.892
  C      101.181    -392.437     189.445
  O       99.096    -398.070     185.440
  O       97.952    -397.026     187.456
  H      104.984    -393.716     189.007
  H       98.066    -397.966     187.698
  H      100.165    -389.698     187.144
  H       99.853    -391.594     190.882
  H      101.508    -393.251     190.084
  H      103.568    -392.748     187.312
  H      102.905    -394.034     189.788
  H      101.341    -395.433     188.683
  H      103.360    -395.749     186.412
  H      101.375    -396.242     185.072
  H      101.447    -397.389     186.393
  P      101.765    -397.918     189.432
  C      100.773    -400.144     188.550
  O      101.519    -398.983     188.260
  O      100.569    -397.442     190.187
  O      102.702    -398.754     190.439
  H      102.149    -399.081     191.174
  H      100.720    -400.758     187.645
  H       99.757    -399.883     188.855
  H      101.262    -400.726     189.338
  H       97.319    -394.835     183.528
  H       98.135    -396.367     183.329
  H       99.025    -394.969     183.883

 3  4  5  6  7  8  9  10  11  12  13  23  28  29  30  31  32 0
 6-311+G(2d,p)
 ****
 33  34 0
 6-311+G(2d,p)
 ****
 1  2  14  15  16  17  18  19  20  21  22  24  25  26  27 0
 3-21G
 ****
 35  36  37  38  39  40  41  42  43  44  45 0
 3-21G
 ****


