%nproc=1
%NoSave
%Mem=1900MB
#P OB98/GEN NMR

erre ene a

0 1
  C      116.168     -36.193     136.443
  O      117.545     -36.484     136.595
  P      118.583     -36.071     135.448
  C      119.767     -34.650     137.278
  O      119.900     -35.527     136.182
  C      120.921     -34.826     138.273
  O      120.750     -36.106     138.929
  C      122.309     -34.863     137.643
  O      123.277     -34.609     138.663
  C      122.409     -36.303     137.195
  O      123.758     -36.712     136.986
  C      121.653     -37.057     138.318
  N      120.900     -38.208     137.786
  C      121.588     -39.414     137.678
  O      122.743     -39.563     138.073
  N      120.932     -40.419     137.022
  C      119.704     -40.311     136.440
  O      119.270     -41.099     135.609
  C      118.938     -39.105     136.793
  C      119.572     -38.110     137.419
  O      117.920     -34.754     134.827
  O      118.821     -37.114     134.411
  H      124.180     -36.024     136.420
  H      117.405     -34.980     134.030
  H      121.484     -41.244     136.818
  H      117.906     -39.045     136.478
  H      119.047     -37.186     137.646
  H      122.343     -37.430     139.084
  H      121.878     -36.420     136.241
  H      122.444     -34.166     136.811
  H      120.864     -34.044     139.038
  H      118.805     -34.827     137.768
  H      119.751     -33.610     136.932
  P      124.317     -33.411     138.429
  C      123.755     -32.325     140.688
  O      124.762     -32.910     139.886
  O      123.880     -32.340     137.487
  O      125.629     -34.169     137.902
  H      126.216     -33.535     137.451
  H      123.994     -32.503     141.739
  H      122.772     -32.751     140.470
  H      123.731     -31.248     140.506
  H      115.633     -36.540     137.302
  H      115.794     -36.683     135.568
  H      116.036     -35.136     136.344

 3  4  5  6  7  8  9  10  11  12  13  23  28  29  30  31  32 0
 6-311+G(2d,p)
 ****
 33  34 0
 6-311+G(2d,p)
 ****
 1  2  14  15  16  17  18  19  20  21  22  24  25  26  27 0
 3-21G
 ****
 35  36  37  38  39  40  41  42  43  44  45 0
 3-21G
 ****


