%nproc=1
%NoSave
%Mem=1900MB
#P OB98/GEN NMR

erre ene a

0 1
  C      -53.328    -559.470    -631.763
  O      -52.658    -558.400    -631.137
  P      -53.251    -556.908    -631.179
  C      -50.997    -556.170    -632.202
  O      -51.972    -555.933    -631.189
  C      -50.002    -555.003    -632.272
  O      -50.675    -553.774    -632.579
  C      -49.242    -554.765    -630.970
  O      -48.216    -555.726    -630.795
  C      -48.744    -553.337    -631.185
  O      -47.543    -553.316    -631.977
  C      -49.929    -552.701    -631.971
  N      -50.760    -551.866    -631.118
  C      -50.414    -550.502    -631.045
  O      -49.418    -550.092    -631.661
  N      -51.157    -549.663    -630.260
  C      -52.153    -550.155    -629.579
  N      -52.857    -549.277    -628.804
  C      -52.544    -551.575    -629.594
  C      -51.806    -552.368    -630.379
  O      -54.288    -556.597    -630.148
  O      -53.795    -556.781    -632.688
  H      -47.807    -553.662    -632.865
  H      -54.641    -557.299    -632.807
  H      -53.370    -551.932    -629.011
  H      -52.027    -553.444    -630.464
  H      -49.546    -552.081    -632.797
  H      -48.533    -552.835    -630.233
  H      -49.945    -554.785    -630.128
  H      -49.288    -555.223    -633.088
  H      -52.535    -548.311    -628.789
  H      -51.519    -556.240    -633.156
  H      -53.630    -549.548    -628.202
  H      -50.493    -557.116    -632.008
  P      -47.849    -556.234    -629.318
  C      -45.288    -555.990    -629.463
  O      -46.394    -556.891    -629.382
  O      -48.892    -557.066    -628.655
  O      -47.593    -554.874    -628.503
  H      -48.028    -554.945    -627.646
  H      -44.380    -556.529    -629.173
  H      -45.441    -555.140    -628.798
  H      -45.181    -555.641    -630.500
  H      -52.771    -560.372    -631.619
  H      -53.419    -559.270    -632.810
  H      -54.303    -559.580    -631.335

 3  4  5  6  7  8  9  10  11  12  13  23  27  28  29  30  32 0
 6-311+G(2d,p)
 ****
 34  35 0
 6-311+G(2d,p)
 ****
 1  2  14  15  16  17  18  19  20  21  22  24  25  26 0
 3-21G
 ****
 31  33  36  37  38  39  40  41  42  43  44  45  46 0
 3-21G
 ****


