%nproc=1
%NoSave
%Mem=1900MB
#P OB98/GEN NMR

erre ene a

0 1
  C      153.091     215.614    -299.958
  O      153.487     216.299    -301.150
  P      152.615     216.020    -302.466
  C      153.193     218.281    -303.608
  O      153.248     216.862    -303.674
  C      153.988     218.893    -304.760
  O      155.408     218.678    -304.602
  C      153.641     218.296    -306.118
  O      152.392     218.779    -306.584
  C      154.843     218.743    -306.943
  O      154.694     220.116    -307.344
  C      155.992     218.621    -305.927
  N      160.674     216.566    -305.779
  C      160.238     217.833    -305.601
  N      158.972     218.300    -305.660
  C      158.111     217.304    -305.922
  C      158.407     215.967    -306.124
  C      159.762     215.603    -306.047
  N      160.208     214.317    -306.244
  N      157.257     215.245    -306.372
  C      156.287     216.137    -306.344
  N      156.752     217.393    -306.064
  O      151.236     216.770    -302.160
  O      152.403     214.569    -302.747
  H      154.658     220.655    -306.527
  H      150.531     216.117    -301.991
  H      161.006     218.569    -305.385
  H      155.241     215.922    -306.520
  H      156.704     219.451    -306.005
  H      154.986     218.149    -307.852
  H      153.617     217.200    -306.055
  H      153.798     219.974    -304.770
  H      153.597     218.630    -302.653
  H      161.203     214.155    -306.250
  H      159.548     213.608    -306.529
  H      152.144     218.594    -303.639
  P      151.159     217.755    -306.613
  C      149.930     219.599    -307.912
  O      150.302     218.232    -307.886
  O      150.281     218.270    -305.385
  O      151.538     216.314    -306.590
  H      150.190     219.241    -305.387
  H      149.387     219.794    -308.839
  H      150.818     220.232    -307.880
  H      149.277     219.824    -307.064
  H      153.747     215.883    -299.157
  H      153.141     214.558    -300.120
  H      152.088     215.889    -299.705

 3  4  5  6  7  8  9  10  11  12  22  25  29  30  31  32 0
 6-311+G(2d,p)
 ****
 33  36  37 0
 6-311+G(2d,p)
 ****
 1  2  13  14  15  16  17  18  19  20  21  23  24  26 0
 3-21G
 ****
 27  28  34  35  38  39  40  41  42  43  44  45  46  47  48 0
 3-21G
 ****


