%nproc=1
%NoSave
%Mem=1900MB
#P OB98/GEN NMR

erre ene a

0 1
  C     -271.163    -105.447     -47.367
  O     -270.104    -106.388     -47.422
  P     -268.618    -105.859     -47.129
  C     -267.936    -106.603     -49.560
  O     -267.958    -105.592     -48.565
  C     -268.186    -105.992     -50.940
  O     -269.376    -105.176     -50.907
  C     -267.078    -105.072     -51.436
  O     -265.959    -105.804     -51.913
  C     -267.815    -104.270     -52.502
  O     -267.906    -105.026     -53.721
  C     -269.212    -104.112     -51.868
  N     -269.418    -102.802     -51.250
  C     -270.720    -102.506     -50.858
  O     -271.663    -103.281     -51.011
  N     -270.906    -101.269     -50.298
  C     -269.957    -100.301     -50.155
  O     -270.188     -99.193     -49.687
  C     -268.607    -100.661     -50.618
  C     -268.404    -101.875     -51.134
  O     -267.927    -107.204     -46.606
  O     -268.581    -104.715     -46.173
  H     -268.354    -107.997     -46.975
  H     -266.999    -105.084     -54.079
  H     -271.838    -101.039     -49.986
  H     -267.829     -99.914     -50.529
  H     -267.419    -102.153     -51.488
  H     -269.991    -104.262     -52.626
  H     -267.315    -103.325     -52.739
  H     -266.761    -104.403     -50.628
  H     -268.354    -106.811     -51.652
  H     -268.715    -107.339     -49.337
  H     -266.963    -107.105     -49.533
  P     -264.589    -105.644     -51.085
  C     -263.807    -103.635     -52.561
  O     -264.125    -104.123     -51.278
  O     -263.576    -106.485     -51.995
  O     -264.687    -106.112     -49.670
  H     -263.700    -106.327     -52.945
  H     -263.867    -102.544     -52.548
  H     -264.498    -104.017     -53.318
  H     -262.786    -103.928     -52.822
  H     -272.089    -105.939     -47.582
  H     -270.993    -104.676     -48.089
  H     -271.207    -105.016     -46.389

 3  4  5  6  7  8  9  10  11  12  13  24  28  29  30  31  32 0
 6-311+G(2d,p)
 ****
 33  34 0
 6-311+G(2d,p)
 ****
 1  2  14  15  16  17  18  19  20  21  22  23  25  26  27 0
 3-21G
 ****
 35  36  37  38  39  40  41  42  43  44  45 0
 3-21G
 ****


