%nproc=1
%NoSave
%Mem=1900MB
#P OB98/GEN NMR

erre ene a

0 1
  C     -258.821    -513.929    -429.612
  O     -260.238    -513.955    -429.515
  P     -261.011    -515.320    -429.162
  C     -262.919    -514.234    -430.495
  O     -262.573    -514.971    -429.335
  C     -264.283    -513.552    -430.288
  O     -265.227    -514.559    -429.856
  C     -264.328    -512.455    -429.224
  O     -263.923    -511.171    -429.676
  C     -265.827    -512.432    -428.923
  O     -266.518    -511.682    -429.944
  C     -266.194    -513.909    -428.979
  N     -267.910    -513.665    -424.161
  C     -268.137    -512.891    -425.245
  N     -267.626    -513.011    -426.487
  C     -266.836    -514.102    -426.581
  C     -266.513    -514.991    -425.566
  C     -267.091    -514.742    -424.299
  N     -266.880    -515.545    -423.205
  N     -265.662    -515.963    -426.033
  C     -265.476    -515.666    -427.311
  N     -266.181    -514.554    -427.681
  O     -260.620    -515.938    -427.862
  O     -260.722    -516.269    -430.413
  H     -266.614    -512.260    -430.726
  H     -260.915    -517.203    -430.174
  H     -268.817    -512.052    -425.087
  H     -264.852    -516.231    -427.991
  H     -267.192    -514.072    -429.432
  H     -266.055    -511.932    -427.969
  H     -263.779    -512.758    -428.317
  H     -264.616    -513.164    -431.265
  H     -262.988    -514.919    -431.337
  H     -267.429    -515.378    -422.389
  H     -266.401    -516.435    -423.355
  H     -262.144    -513.487    -430.720
  P     -262.791    -510.423    -428.807
  C     -264.042    -508.259    -429.602
  O     -262.811    -508.885    -429.294
  O     -261.450    -511.076    -428.825
  O     -263.449    -510.348    -427.352
  H     -264.231    -509.786    -427.272
  H     -263.854    -507.188    -429.753
  H     -264.756    -508.369    -428.773
  H     -264.464    -508.672    -430.507
  H     -258.498    -512.938    -429.853
  H     -258.504    -514.604    -430.379
  H     -258.394    -514.226    -428.677

 3  4  5  6  7  8  9  10  11  12  22  25  29  30  31  32 0
 6-311+G(2d,p)
 ****
 33  36  37 0
 6-311+G(2d,p)
 ****
 1  2  13  14  15  16  17  18  19  20  21  23  24  26 0
 3-21G
 ****
 27  28  34  35  38  39  40  41  42  43  44  45  46  47  48 0
 3-21G
 ****


