%nproc=1
%NoSave
%Mem=1900MB
#P OB98/GEN NMR

erre ene a

0 1
  C      793.174    -899.080     254.628
  O      793.966    -898.370     255.562
  H      792.233    -899.340     255.106
  H      793.686    -900.000     254.329
  H      792.971    -898.460     253.736
  P      795.354    -897.720     255.068
  C      796.935    -895.840     255.866
  O      795.744    -896.570     256.129
  C      797.026    -894.650     256.816
  O      795.897    -893.760     256.638
  C      796.967    -895.040     258.293
  O      798.221    -895.580     258.725
  C      796.599    -893.720     258.949
  O      797.746    -892.880     259.095
  C      795.601    -893.130     257.909
  N      794.200    -893.330     258.278
  C      793.426    -892.180     258.418
  O      793.884    -891.050     258.233
  N      792.118    -892.390     258.758
  C      791.554    -893.580     259.099
  O      790.386    -893.690     259.485
  C      792.432    -894.760     258.974
  C      793.674    -894.590     258.594
  O      795.395    -897.300     253.631
  O      796.427    -898.860     255.376
  H      798.309    -893.040     258.316
  H      796.674    -899.300     254.532
  H      791.541    -891.570     258.866
  H      792.008    -895.730     259.238
  H      794.342    -895.440     258.488
  H      795.775    -892.070     257.780
  H      796.166    -893.850     259.927
  H      796.161    -895.760     258.471
  H      797.938    -894.080     256.604
  H      796.882    -895.460     254.824
  H      797.802    -896.500     255.974
  P      798.308    -896.350     260.115
  C      799.392    -898.500     261.036
  O      799.195    -897.670     259.896
  O      797.006    -896.570     260.826
  O      799.271    -895.410     261.012
  H      798.809    -895.110     261.798
  H      799.995    -899.341     260.765
  H      798.444    -898.842     261.397
  H      799.885    -897.941     261.803

 6  7  8  9  10  11  12  13  14  15  16  26  31  32  33  34  35 0
 6-311+G(2d,p)
 ****
 36  37 0
 6-311+G(2d,p)
 ****
 1  2  3  4  5  17  18  19  20  21  22  23  24  25 0
 3-21G
 ****
 27  28  29  30  38  39  40  41  42  43  44  45 0
 3-21G
 ****


