%nproc=1
%NoSave
%Mem=1900MB
#P OB98/GEN NMR

erre ene a

0 1
  C     -176.664     -15.057      37.391
  O     -176.521     -16.278      36.690
  H     -175.690     -14.766      37.791
  H     -177.365     -15.181      38.220
  H     -177.018     -14.275      36.714
  P     -177.844     -16.867      36.001
  C     -177.346     -15.847      33.675
  O     -178.176     -15.825      34.829
  C     -177.867     -14.870      32.624
  O     -176.969     -14.806      31.503
  C     -179.227     -15.238      32.044
  O     -180.273     -14.837      32.914
  C     -179.218     -14.425      30.760
  O     -179.548     -13.052      31.050
  C     -177.749     -14.525      30.310
  N     -177.588     -15.622      25.298
  C     -178.064     -14.551      25.968
  N     -178.113     -14.346      27.300
  C     -177.600     -15.395      27.964
  C     -177.077     -16.556      27.416
  C     -177.072     -16.648      26.014
  N     -176.575     -17.739      25.336
  N     -176.644     -17.412      28.407
  C     -176.854     -16.756      29.530
  N     -177.464     -15.545      29.317
  O     -178.961     -17.201      36.927
  O     -177.238     -18.109      35.191
  H     -178.991     -12.768      31.798
  H     -176.372     -17.879      34.811
  H     -178.458     -13.749      25.350
  H     -176.568     -17.102      30.516
  H     -177.386     -13.578      29.895
  H     -179.953     -14.782      30.036
  H     -179.281     -16.303      31.793
  H     -177.893     -13.871      33.077
  H     -177.302     -16.857      33.255
  H     -176.766     -17.797      24.347
  H     -176.307     -18.550      25.872
  H     -176.338     -15.559      33.990
  P     -181.787     -15.280      32.629
  C     -181.666     -17.245      34.283
  O     -181.866     -16.856      32.930
  O     -182.324     -14.875      31.301
  O     -182.625     -14.641      33.830
  H     -183.489     -14.321      33.508
  H     -181.741     -18.309      34.363
  H     -182.412     -16.788      34.899
  H     -180.695     -16.930      34.605

 6  7  8  9  10  11  12  13  14  15  25  28  32  33  34  35 0
 6-311+G(2d,p)
 ****
 36  39  40 0
 6-311+G(2d,p)
 ****
 1  2  3  4  5  16  17  18  19  20  21  22  23  24 0
 3-21G
 ****
 26  27  29  30  31  37  38  41  42  43  44  45  46  47 0
 3-21G
 ****
 48 0
 3-21G
 ****


