%nproc=1
%NoSave
%Mem=1900MB
#P OB98/GEN NMR

erre ene a

0 1
  C      -36.024      91.704     -48.106
  O      -35.743      92.564     -49.188
  H      -36.426      92.300     -47.282
  H      -35.101      91.220     -47.772
  H      -36.759      90.943     -48.380
  P      -35.569      91.933     -50.648
  C      -33.069      91.315     -50.478
  O      -34.402      90.831     -50.569
  C      -32.158      90.688     -51.533
  O      -30.866      91.336     -51.529
  C      -31.890      89.207     -51.263
  O      -32.880      88.314     -51.741
  C      -30.565      88.992     -51.989
  O      -30.781      88.704     -53.379
  C      -29.865      90.346     -51.823
  N      -25.097      91.547     -50.429
  C      -25.705      91.688     -51.662
  N      -24.923      92.155     -52.662
  N      -26.955      91.380     -51.889
  C      -27.584      90.838     -50.820
  C      -27.082      90.635     -49.553
  C      -25.712      91.029     -49.298
  O      -25.124      90.917     -48.226
  N      -28.020      90.062     -48.727
  C      -29.058      89.851     -49.512
  N      -28.850      90.329     -50.786
  O      -34.874      93.111     -51.488
  O      -36.836      91.479     -51.306
  H      -29.923      88.485     -53.785
  H      -35.090      93.016     -52.433
  H      -24.139      91.826     -50.305
  H      -29.987      89.382     -49.205
  H      -29.371      90.658     -52.752
  H      -30.008      88.148     -51.574
  H      -23.930      92.294     -52.563
  H      -31.727      89.039     -50.192
  H      -25.249      92.023     -53.622
  H      -32.596      90.846     -52.527
  H      -32.710      91.063     -49.477
  H      -33.056      92.407     -50.559
  P      -33.198      86.965     -50.938
  C      -31.639      85.492     -52.413
  O      -31.936      85.997     -51.130
  O      -34.341      86.285     -51.830
  O      -33.637      87.163     -49.527
  H      -35.223      86.495     -51.468
  H      -30.771      84.868     -52.359
  H      -31.452      86.306     -53.082
  H      -32.468      84.919     -52.772

 6  7  8  9  10  11  12  13  14  15  26  29  33  34 0
 6-311+G(2d,p)
 ****
 36  38  39  40  41 0
 6-311+G(2d,p)
 ****
 1  2  3  4  5  16  17  18  19  20  21  22  23  24  25 0
 3-21G
 ****
 27  28  30  31  32  35  37  42  43  44  45  46  47 0
 3-21G
 ****
 48  49 0
 3-21G
 ****


