%nproc=1
%NoSave
%Mem=1900MB
#P OB98/GEN NMR

erre ene a

0 1
  C     -206.972     490.073     -19.877
  O     -206.353     488.823     -19.665
  H     -206.772     490.393     -20.903
  H     -206.556     490.814     -19.189
  H     -208.055     490.006     -19.736
  P     -206.746     487.974     -18.368
  C     -208.705     486.404     -17.766
  O     -208.267     487.496     -18.558
  C     -210.223     486.216     -17.886
  O     -210.874     487.491     -17.646
  C     -210.622     485.772     -19.302
  O     -211.824     485.010     -19.299
  C     -210.875     487.094     -20.007
  O     -211.733     486.968     -21.141
  C     -211.468     487.936     -18.879
  N     -212.195     492.045     -21.808
  C     -212.415     490.713     -22.103
  N     -212.900     490.439     -23.339
  N     -212.168     489.738     -21.269
  C     -211.623     490.148     -20.100
  C     -211.333     491.436     -19.704
  C     -211.648     492.509     -20.619
  O     -211.448     493.704     -20.421
  N     -210.776     491.459     -18.446
  C     -210.722     490.194     -18.089
  N     -211.246     489.359     -19.046
  O     -206.874     489.082     -17.217
  O     -205.782     486.891     -17.983
  H     -212.038     487.861     -21.377
  H     -206.765     488.675     -16.338
  H     -212.431     492.759     -22.472
  H     -210.332     489.828     -17.145
  H     -212.551     487.778     -18.804
  H     -209.919     487.478     -20.367
  H     -212.918     491.140     -24.065
  H     -209.843     485.205     -19.795
  H     -212.769     489.482     -23.674
  H     -210.580     485.527     -17.115
  H     -208.424     486.624     -16.733
  H     -208.178     485.489     -18.053
  P     -211.742     483.450     -19.659
  C     -210.584     481.409     -18.432
  O     -211.313     482.616     -18.366
  O     -210.470     483.345     -20.620
  O     -212.977     482.899     -20.303
  H     -210.741     483.064     -21.513
  H     -210.417     481.039     -17.442
  H     -209.643     481.586     -18.910
  H     -211.139     480.687     -18.994

 6  7  8  9  10  11  12  13  14  15  26  29  33  34 0
 6-311+G(2d,p)
 ****
 36  38  39  40  41 0
 6-311+G(2d,p)
 ****
 1  2  3  4  5  16  17  18  19  20  21  22  23  24  25 0
 3-21G
 ****
 27  28  30  31  32  35  37  42  43  44  45  46  47 0
 3-21G
 ****
 48  49 0
 3-21G
 ****


