%nproc=1
%NoSave
%Mem=1900MB
#P OB98/GEN NMR

erre ene a

0 1
  C      -36.830    -337.647     122.827
  O      -36.749    -337.866     124.218
  H      -36.942    -338.613     122.327
  H      -35.909    -337.174     122.476
  H      -37.686    -337.017     122.570
  P      -37.024    -336.641     125.209
  C      -39.596    -336.670     125.005
  O      -38.399    -335.943     124.756
  C      -40.580    -335.870     125.860
  O      -41.785    -336.636     126.081
  C      -40.020    -335.552     127.246
  O      -39.194    -334.405     127.318
  C      -41.295    -335.360     128.061
  O      -41.779    -334.011     127.943
  C      -42.269    -336.340     127.403
  N      -45.129    -339.033     130.670
  C      -45.317    -337.744     130.208
  N      -46.368    -337.072     130.725
  N      -44.533    -337.172     129.333
  C      -43.470    -337.930     128.976
  C      -43.170    -339.212     129.378
  C      -44.076    -339.859     130.306
  O      -43.951    -340.995     130.752
  N      -42.007    -339.661     128.800
  C      -41.568    -338.628     128.113
  N      -42.435    -337.562     128.166
  O      -35.928    -335.553     124.775
  O      -36.917    -336.960     126.668
  H      -42.186    -333.906     127.065
  H      -35.720    -334.972     125.528
  H      -45.779    -339.432     131.322
  H      -40.648    -338.608     127.538
  H      -43.267    -335.896     127.287
  H      -41.127    -335.542     129.127
  H      -46.928    -337.428     131.485
  H      -39.484    -336.419     127.648
  H      -46.385    -336.055     130.618
  H      -40.870    -334.960     125.322
  H      -39.307    -337.584     125.526
  H      -40.062    -336.966     124.062
  P      -38.711    -333.852     128.742
  C      -36.228    -334.631     128.736
  O      -37.532    -334.814     129.243
  O      -39.939    -334.220     129.699
  O      -38.397    -332.395     128.776
  H      -40.529    -333.452     129.801
  H      -35.571    -335.353     129.173
  H      -35.887    -333.646     128.977
  H      -36.238    -334.755     127.673

 6  7  8  9  10  11  12  13  14  15  26  29  33  34 0
 6-311+G(2d,p)
 ****
 36  38  39  40  41 0
 6-311+G(2d,p)
 ****
 1  2  3  4  5  16  17  18  19  20  21  22  23  24  25 0
 3-21G
 ****
 27  28  30  31  32  35  37  42  43  44  45  46  47 0
 3-21G
 ****
 48  49 0
 3-21G
 ****


