%nproc=1
%NoSave
%Mem=1900MB
#P OB98/GEN NMR

erre ene a

0 1
  C      311.793     324.221      22.322
  O      311.365     325.509      21.909
  P      309.792     325.786      21.783
  C      307.829     325.790      23.480
  O      309.089     325.242      23.120
  C      306.946     324.735      24.152
  O      306.564     323.730      23.175
  C      307.634     324.004      25.309
  O      306.663     323.676      26.311
  C      308.096     322.705      24.681
  O      308.274     321.686      25.666
  C      306.954     322.444      23.696
  N      307.890     317.634      22.464
  C      307.255     318.146      23.578
  N      306.894     317.256      24.528
  N      306.983     319.417      23.742
  C      307.409     320.186      22.709
  C      308.034     319.795      21.546
  C      308.337     318.387      21.387
  O      308.922     317.871      20.440
  N      308.277     320.860      20.723
  C      307.838     321.909      21.393
  N      307.337     321.551      22.622
  O      309.336     324.730      20.667
  O      309.433     327.175      21.383
  H      308.997     321.988      26.254
  H      309.169     325.195      19.822
  H      308.085     316.648      22.394
  H      307.881     322.932      21.057
  H      306.082     322.011      24.199
  H      309.047     322.853      24.166
  H      307.134     316.275      24.496
  H      308.459     324.564      25.770
  H      306.470     317.612      25.377
  H      306.021     325.215      24.494
  H      307.330     326.155      22.582
  H      307.977     326.640      24.158
  P      307.219     323.519      27.810
  C      308.389     325.159      29.448
  O      308.036     324.856      28.117
  O      308.357     322.402      27.657
  O      306.184     323.139      28.815
  H      308.489     321.936      28.504
  H      309.478     325.170      29.539
  H      307.980     324.438      30.168
  H      308.003     326.153      29.701
  H      312.862     324.195      22.357
  H      311.441     323.488      21.627
  H      311.399     324.009      23.294

 3  4  5  6  7  8  9  10  11  12  23  26  30  31 0
 6-311+G(2d,p)
 ****
 33  35  36  37  38 0
 6-311+G(2d,p)
 ****
 1  2  13  14  15  16  17  18  19  20  21  22  24  25 0
 3-21G
 ****
 27  28  29  32  34  39  40  41  42  43  44  45  46  47  48  49 0
 3-21G
 ****


