%nproc=1
%NoSave
%Mem=1900MB
#P OB98/GEN NMR

erre ene a

0 1
  C      -79.103     438.668      42.196
  O      -79.533     438.166      43.441
  H      -79.928     439.215      41.735
  H      -78.826     437.836      41.543
  H      -78.253     439.345      42.308
  P      -78.432     437.732      44.517
  C      -79.034     435.275      43.997
  O      -77.990     436.220      44.198
  C      -78.690     434.279      42.890
  O      -78.290     434.995      41.700
  C      -77.523     433.362      43.266
  O      -77.899     432.195      43.978
  C      -76.946     433.006      41.898
  O      -77.595     431.852      41.342
  C      -77.249     434.250      41.053
  N      -72.896     435.035      38.489
  C      -73.709     433.917      38.496
  N      -73.282     432.873      37.754
  N      -74.818     433.839      39.181
  C      -75.062     434.923      39.950
  C      -74.320     436.080      40.041
  C      -73.132     436.190      39.224
  O      -72.388     437.162      39.172
  N      -74.855     436.950      40.962
  C      -75.865     436.283      41.484
  N      -76.078     435.082      40.846
  O      -79.280     437.563      45.870
  O      -77.306     438.700      44.716
  H      -78.553     432.038      41.296
  H      -78.718     437.786      46.635
  H      -72.070     435.049      37.921
  H      -76.497     436.637      42.288
  H      -77.622     433.976      40.059
  H      -75.884     432.766      41.975
  H      -72.396     432.848      37.277
  H      -76.762     433.913      43.824
  H      -73.746     431.972      37.880
  H      -79.586     433.701      42.631
  H      -79.921     435.846      43.723
  H      -79.255     434.749      44.930
  P      -77.192     431.813      45.360
  C      -76.699     429.353      44.586
  O      -76.219     430.575      45.105
  O      -78.387     431.175      46.212
  O      -76.533     432.947      46.077
  H      -78.755     431.832      46.831
  H      -75.888     428.662      44.493
  H      -77.136     429.521      43.624
  H      -77.437     428.950      45.247

 6  7  8  9  10  11  12  13  14  15  26  29  33  34 0
 6-311+G(2d,p)
 ****
 36  38  39  40  41 0
 6-311+G(2d,p)
 ****
 1  2  3  4  5  16  17  18  19  20  21  22  23  24  25 0
 3-21G
 ****
 27  28  30  31  32  35  37  42  43  44  45  46  47 0
 3-21G
 ****
 48  49 0
 3-21G
 ****


