%nproc=1
%NoSave
%Mem=1900MB
#P OB98/GEN NMR

erre ene a

0 1
  C      -89.556    -896.720     221.508
  O      -89.829    -895.540     220.758
  P      -88.845    -895.080     219.570
  C      -90.834    -895.040     217.912
  O      -89.544    -895.590     218.227
  C      -90.747    -894.250     216.613
  O      -89.978    -894.990     215.647
  C      -92.094    -893.990     215.951
  O      -92.797    -892.950     216.612
  C      -91.668    -893.690     214.521
  O      -91.192    -892.320     214.435
  C      -90.482    -894.650     214.337
  N      -90.858    -895.860     213.590
  C      -90.237    -896.050     212.353
  O      -89.424    -895.240     211.914
  N      -90.555    -897.190     211.628
  C      -91.404    -898.050     212.100
  N      -91.625    -899.170     211.378
  C      -92.116    -897.850     213.385
  C      -91.797    -896.760     214.075
  O      -87.420    -895.520     219.742
  O      -89.028    -893.480     219.496
  H      -90.370    -892.280     214.969
  H      -88.424    -892.990     220.098
  H      -92.825    -898.600     213.719
  H      -92.254    -896.560     215.031
  H      -89.669    -894.160     213.796
  H      -92.465    -893.810     213.791
  H      -92.717    -894.900     215.965
  H      -90.231    -893.300     216.811
  H      -90.978    -899.350     210.603
  H      -91.117    -894.360     218.732
  H      -92.036    -900.000     211.793
  H      -91.555    -895.840     217.846
  P      -94.195    -893.330     217.314
  C      -94.234    -891.330     218.949
  O      -94.138    -892.720     218.803
  O      -94.091    -894.910     217.513
  O      -95.416    -892.940     216.515
  H      -94.603    -895.380     216.816
  H      -94.417    -891.100     220.011
  H      -95.071    -890.920     218.361
  H      -93.305    -890.840     218.631
  H      -90.318    -896.857     222.247
  H      -88.605    -896.625     221.989
  H      -89.540    -897.564     220.851

 3  4  5  6  7  8  9  10  11  12  13  23  27  28  29  30  32 0
 6-311+G(2d,p)
 ****
 34  35 0
 6-311+G(2d,p)
 ****
 1  2  14  15  16  17  18  19  20  21  22  24  25  26 0
 3-21G
 ****
 31  33  36  37  38  39  40  41  42  43  44  45  46 0
 3-21G
 ****


