%nproc=1
%NoSave
%Mem=1900MB
#P OB98/GEN NMR

erre ene a

0 1
  C      550.905     470.921     106.812
  O      549.695     470.249     107.099
  H      550.872     471.281     105.781
  H      551.746     470.232     106.915
  H      551.043     471.776     107.481
  P      549.425     469.840     108.625
  C      548.061     472.043     108.846
  O      549.056     471.196     109.403
  C      547.458     472.928     109.933
  O      546.662     472.091     110.823
  C      548.498     473.654     110.801
  O      547.982     474.941     111.140
  C      548.559     472.797     112.053
  O      549.034     473.488     113.200
  C      547.098     472.355     112.173
  N      546.934     471.170     113.015
  C      546.733     471.380     114.375
  O      546.592     472.483     114.904
  N      546.687     470.247     115.148
  C      546.848     468.968     114.705
  O      546.819     467.994     115.451
  C      547.070     468.812     113.261
  C      547.107     469.902     112.495
  O      550.890     469.490     109.166
  O      548.457     468.725     108.830
  H      551.089     468.546     109.024
  H      548.503     474.306     113.288
  H      546.538     470.383     116.136
  H      547.213     467.809     112.882
  H      547.293     469.827     111.430
  H      546.484     473.173     112.561
  H      549.215     471.934     111.882
  H      549.479     473.761     110.326
  H      546.772     473.643     109.469
  H      547.271     471.430     108.404
  H      548.513     472.661     108.060
  P      548.548     476.202     110.317
  C      546.111     476.799     109.557
  O      547.448     476.504     109.188
  O      549.763     475.532     109.523
  O      548.916     477.354     111.193
  H      549.584     474.614     109.259
  H      545.528     476.971     108.677
  H      546.096     477.675     110.172
  H      545.701     475.974     110.101

 6  7  8  9  10  11  12  13  14  15  16  27  31  32  33  34  35 0
 6-311+G(2d,p)
 ****
 36  37 0
 6-311+G(2d,p)
 ****
 1  2  3  4  5  17  18  19  20  21  22  23  24  25 0
 3-21G
 ****
 26  28  29  30  38  39  40  41  42  43  44  45 0
 3-21G
 ****


