%nproc=1
%NoSave
%Mem=1900MB
#P OB98/GEN NMR

erre ene a

0 1
  C     -222.486     140.485     106.192
  O     -221.821     140.945     105.033
  P     -220.912     139.961     104.156
  C     -218.588     138.889     104.297
  O     -219.563     139.670     104.972
  C     -217.215     139.023     104.956
  O     -216.710     140.371     104.748
  C     -217.209     138.747     106.465
  O     -215.993     138.056     106.765
  C     -217.196     140.139     107.067
  O     -216.699     140.146     108.397
  C     -216.337     140.887     106.045
  N     -216.516     142.327     106.112
  C     -215.631     143.038     106.931
  O     -214.839     142.432     107.651
  N     -215.682     144.411     106.919
  C     -216.656     145.005     106.297
  N     -216.631     146.367     106.253
  C     -217.751     144.274     105.630
  C     -217.597     142.952     105.538
  O     -220.699     140.390     102.743
  O     -221.681     138.555     104.216
  H     -221.827     138.230     103.306
  H     -216.531     141.069     108.669
  H     -218.600     144.810     105.237
  H     -218.335     142.332     105.041
  H     -215.275     140.656     106.189
  H     -218.212     140.544     107.084
  H     -218.062     138.138     106.785
  H     -216.524     138.341     104.445
  H     -215.843     146.835     106.688
  H     -218.523     139.245     103.265
  H     -217.143     146.895     105.547
  H     -218.903     137.841     104.271
  P     -215.960     137.094     108.055
  C     -214.909     137.172     110.429
  O     -215.057     137.804     109.176
  O     -214.995     135.912     107.550
  O     -217.269     136.526     108.496
  H     -215.196     135.101     108.053
  H     -214.330     137.827     111.084
  H     -214.374     136.225     110.315
  H     -215.885     136.992     110.886
  H     -223.036     141.291     106.631
  H     -221.767     140.120     106.895
  H     -223.159     139.696     105.928

 3  4  5  6  7  8  9  10  11  12  13  24  27  28  29  30  32 0
 6-311+G(2d,p)
 ****
 34  35 0
 6-311+G(2d,p)
 ****
 1  2  14  15  16  17  18  19  20  21  22  23  25  26 0
 3-21G
 ****
 31  33  36  37  38  39  40  41  42  43  44  45  46 0
 3-21G
 ****


