%nproc=1
%NoSave
%Mem=1900MB
#P OB98/GEN NMR

erre ene a

0 1
  C      -21.848      97.084    -697.243
  O      -22.056      97.760    -698.464
  H      -20.956      96.460    -697.333
  H      -22.703      96.436    -697.023
  H      -21.697      97.789    -696.421
  P      -23.184      98.898    -698.541
  C      -24.979      97.219    -699.330
  O      -24.595      98.162    -698.334
  C      -26.490      97.261    -699.528
  O      -26.863      96.504    -700.698
  C      -27.288      96.660    -698.369
  O      -27.328      97.543    -697.265
  C      -28.631      96.419    -699.051
  O      -29.398      97.631    -699.113
  C      -28.187      95.969    -700.464
  N      -28.207      94.515    -700.637
  C      -29.455      93.905    -700.606
  O      -30.499      94.517    -700.398
  N      -29.457      92.546    -700.792
  C      -28.359      91.750    -700.927
  O      -28.406      90.534    -701.041
  C      -27.063      92.448    -700.924
  C      -27.041      93.774    -700.781
  O      -23.117      99.814    -699.723
  O      -22.999      99.701    -697.164
  H      -29.598      97.888    -698.191
  H      -22.501     100.522    -697.331
  H      -30.353      92.079    -700.761
  H      -26.161      91.854    -701.023
  H      -26.105      94.307    -700.768
  H      -28.846      96.410    -701.230
  H      -29.247      95.688    -698.521
  H      -26.862      95.689    -698.083
  H      -26.783      98.310    -699.692
  H      -24.689      96.216    -699.002
  H      -24.461      97.458    -700.262
  P      -28.108      97.140    -695.927
  C      -29.853      99.015    -695.983
  O      -29.635      97.614    -696.089
  O      -27.446      97.572    -694.657
  O      -28.203      95.542    -696.005
  H      -27.576      95.141    -695.376
  H      -30.895      99.224    -696.105
  H      -29.297      99.521    -696.744
  H      -29.531      99.354    -695.021

 6  7  8  9  10  11  12  13  14  15  16  26  31  32  33  34  35 0
 6-311+G(2d,p)
 ****
 36  37 0
 6-311+G(2d,p)
 ****
 1  2  3  4  5  17  18  19  20  21  22  23  24  25 0
 3-21G
 ****
 27  28  29  30  38  39  40  41  42  43  44  45 0
 3-21G
 ****


