%nproc=1
%NoSave
%Mem=1900MB
#P OB98/GEN NMR

erre ene a

0 1
  C      242.933    -231.780     -57.414
  O      243.862    -232.103     -58.436
  P      245.111    -233.068     -58.145
  C      246.257    -233.492     -55.884
  O      245.755    -232.513     -56.786
  C      246.870    -232.812     -54.662
  O      245.806    -232.189     -53.904
  C      247.580    -233.735     -53.673
  O      248.929    -234.035     -54.006
  C      247.554    -232.874     -52.415
  O      248.590    -231.876     -52.487
  C      246.174    -232.214     -52.503
  N      244.312    -233.156     -47.832
  C      245.315    -232.359     -48.262
  N      245.764    -232.176     -49.521
  C      245.031    -232.893     -50.391
  C      243.979    -233.744     -50.105
  C      243.618    -233.868     -48.751
  N      242.582    -234.663     -48.319
  N      243.487    -234.320     -51.260
  C      244.225    -233.811     -52.223
  N      245.165    -232.937     -51.751
  O      246.049    -233.228     -59.290
  O      244.446    -234.449     -57.691
  H      248.429    -231.359     -53.299
  H      245.101    -235.169     -57.747
  H      245.831    -231.793     -47.490
  H      244.118    -234.047     -53.273
  H      246.181    -231.178     -52.148
  H      247.729    -233.449     -51.502
  H      247.002    -234.650     -53.494
  H      247.546    -232.020     -55.010
  H      247.033    -234.068     -56.400
  H      242.312    -234.589     -47.350
  H      241.965    -235.063     -49.014
  H      245.454    -234.173     -55.595
  P      249.570    -235.354     -53.345
  C      249.918    -235.979     -50.829
  O      249.861    -234.973     -51.817
  O      250.723    -235.923     -54.095
  O      248.317    -236.345     -53.246
  H      247.624    -236.076     -52.622
  H      250.284    -235.537     -49.897
  H      250.604    -236.777     -51.126
  H      248.923    -236.393     -50.653
  H      242.181    -231.129     -57.808
  H      243.443    -231.291     -56.610
  H      242.475    -232.677     -57.052

 3  4  5  6  7  8  9  10  11  12  22  25  29  30  31  32 0
 6-311+G(2d,p)
 ****
 33  36  37 0
 6-311+G(2d,p)
 ****
 1  2  13  14  15  16  17  18  19  20  21  23  24  26 0
 3-21G
 ****
 27  28  34  35  38  39  40  41  42  43  44  45  46  47  48 0
 3-21G
 ****


