%nproc=1
%NoSave
%Mem=1900MB
#P OB98/GEN NMR

erre ene a

0 1
  C     -395.355    -897.910     610.548
  O     -394.572    -897.881     611.750
  P     -394.529    -899.216     612.635
  C     -397.043    -899.435     613.232
  O     -395.943    -899.962     612.510
  C     -398.378    -899.997     612.720
  O     -398.436    -901.434     612.894
  C     -399.598    -899.410     613.432
  O     -400.696    -899.403     612.511
  C     -399.883    -900.448     614.507
  O     -401.214    -900.334     615.007
  C     -399.571    -901.732     613.735
  N     -401.289    -906.156     615.440
  C     -401.861    -905.251     614.564
  N     -403.060    -905.596     614.048
  N     -401.319    -904.111     614.240
  C     -400.101    -903.918     614.810
  C     -399.429    -904.732     615.687
  C     -400.063    -905.979     616.068
  O     -399.602    -906.811     616.848
  N     -398.230    -904.180     616.068
  C     -398.185    -903.036     615.417
  N     -399.283    -902.843     614.616
  O     -394.534    -898.651     614.137
  O     -393.327    -900.066     612.388
  H     -401.289    -900.940     615.776
  H     -393.664    -898.771     614.540
  H     -401.756    -907.012     615.672
  H     -397.391    -902.297     615.493
  H     -400.402    -902.037     613.094
  H     -399.185    -900.311     615.347
  H     -403.516    -906.480     614.225
  H     -399.462    -898.408     613.844
  H     -403.490    -904.974     613.374
  H     -398.444    -899.795     611.642
  H     -397.052    -898.340     613.155
  H     -396.904    -899.651     614.296
  P     -400.928    -898.053     611.672
  C     -402.844    -897.125     613.156
  O     -401.509    -896.975     612.701
  O     -402.181    -898.398     610.735
  O     -399.745    -897.608     610.875
  H     -402.172    -897.843     609.934
  H     -402.835    -897.528     614.171
  H     -403.425    -897.791     612.507
  H     -403.324    -896.142     613.158
  H     -395.295    -896.960     610.060
  H     -396.375    -898.121     610.792
  H     -394.979    -898.670     609.896

 3  4  5  6  7  8  9  10  11  12  23  26  30  31 0
 6-311+G(2d,p)
 ****
 33  35  36  37  38 0
 6-311+G(2d,p)
 ****
 1  2  13  14  15  16  17  18  19  20  21  22  24  25 0
 3-21G
 ****
 27  28  29  32  34  39  40  41  42  43  44  45  46  47  48  49 0
 3-21G
 ****


