%nproc=1
%NoSave
%Mem=1900MB
#P OB98/GEN NMR

erre ene a

0 1
  C     -350.205    -218.967     363.840
  O     -348.811    -218.728     363.823
  H     -350.711    -218.124     363.364
  H     -350.563    -219.059     364.869
  H     -350.435    -219.878     363.278
  P     -347.883    -219.841     364.511
  C     -346.742    -220.534     362.293
  O     -347.615    -220.912     363.348
  C     -345.519    -221.445     362.258
  O     -344.656    -221.165     363.374
  C     -345.842    -222.933     362.332
  O     -346.179    -223.432     361.048
  C     -344.514    -223.495     362.816
  O     -343.609    -223.624     361.701
  C     -344.010    -222.401     363.773
  N     -342.492    -224.841     368.027
  C     -342.105    -224.961     366.739
  N     -342.590    -224.322     365.653
  C     -343.569    -223.471     365.998
  C     -344.070    -223.243     367.271
  C     -343.484    -223.970     368.320
  N     -343.881    -223.845     369.633
  N     -345.079    -222.303     367.243
  C     -345.143    -221.925     365.982
  N     -344.275    -222.628     365.181
  O     -348.380    -220.387     365.808
  O     -346.485    -219.065     364.592
  H     -343.931    -224.369     361.161
  H     -346.331    -218.553     363.778
  H     -341.303    -225.668     366.554
  H     -345.782    -221.136     365.599
  H     -342.928    -222.248     363.683
  H     -344.612    -224.485     363.262
  H     -346.615    -223.144     363.079
  H     -344.954    -221.215     361.344
  H     -346.422    -219.492     362.423
  H     -343.547    -224.536     370.285
  H     -344.706    -223.296     369.829
  H     -347.301    -220.610     361.356
  P     -347.129    -224.712     360.880
  C     -349.317    -223.432     361.319
  O     -348.402    -224.407     361.807
  O     -346.454    -226.018     361.112
  O     -347.722    -224.573     359.402
  H     -348.097    -225.426     359.109
  H     -350.119    -223.315     362.017
  H     -349.709    -223.751     360.376
  H     -348.811    -222.497     361.197

 6  7  8  9  10  11  12  13  14  15  25  28  32  33  34  35 0
 6-311+G(2d,p)
 ****
 36  39  40 0
 6-311+G(2d,p)
 ****
 1  2  3  4  5  16  17  18  19  20  21  22  23  24 0
 3-21G
 ****
 26  27  29  30  31  37  38  41  42  43  44  45  46  47 0
 3-21G
 ****
 48 0
 3-21G
 ****


