%nproc=1
%NoSave
%Mem=1900MB
#P OB98/GEN NMR

erre ene a

0 1
  C     -160.329      42.252     332.134
  O     -159.083      41.600     332.290
  P     -157.725      42.263     331.756
  C     -157.684      40.381     330.000
  O     -157.605      41.784     330.227
  C     -158.488      40.102     328.735
  O     -159.847      40.561     328.943
  C     -158.014      40.810     327.467
  O     -156.965      40.155     326.780
  C     -159.279      40.764     326.622
  O     -159.423      39.456     326.035
  C     -160.377      40.998     327.667
  N     -163.980      44.421     326.446
  C     -163.892      43.089     326.240
  N     -162.889      42.247     326.578
  C     -161.923      42.909     327.234
  C     -161.872      44.265     327.517
  C     -162.967      45.036     327.096
  N     -163.063      46.393     327.328
  N     -160.702      44.581     328.191
  C     -160.070      43.431     328.312
  N     -160.767      42.393     327.757
  O     -156.530      42.007     332.609
  O     -158.073      43.815     331.622
  H     -160.297      39.439     325.597
  H     -157.247      44.340     331.557
  H     -164.739      42.630     325.732
  H     -159.114      43.310     328.784
  H     -161.281      40.403     327.468
  H     -159.271      41.485     325.802
  H     -157.760      41.862     327.673
  H     -158.521      39.012     328.580
  H     -158.191      39.920     330.856
  H     -163.941      46.843     327.106
  H     -162.393      46.818     327.950
  H     -156.678      39.958     329.928
  P     -155.608      40.987     326.538
  C     -156.008      40.851     323.957
  O     -155.761      41.656     325.091
  O     -154.354      40.202     326.757
  O     -155.770      42.232     327.538
  H     -156.478      42.851     327.311
  H     -156.242      41.503     323.107
  H     -156.856      40.187     324.125
  H     -155.120      40.264     323.710
  H     -161.104      41.646     332.555
  H     -160.523      42.406     331.093
  H     -160.302      43.197     332.636

 3  4  5  6  7  8  9  10  11  12  22  25  29  30  31  32 0
 6-311+G(2d,p)
 ****
 33  36  37 0
 6-311+G(2d,p)
 ****
 1  2  13  14  15  16  17  18  19  20  21  23  24  26 0
 3-21G
 ****
 27  28  34  35  38  39  40  41  42  43  44  45  46  47  48 0
 3-21G
 ****


