%nproc=1
%NoSave
%Mem=1900MB
#P OB98/GEN NMR

erre ene a

0 1
  C      109.973     -29.100    -163.694
  O      110.506     -29.338    -164.976
  H      108.984     -28.646    -163.809
  H      110.606     -28.403    -163.140
  H      109.867     -30.034    -163.139
  P      111.979     -29.964    -165.111
  C      111.369     -32.230    -164.070
  O      111.752     -31.552    -165.259
  C      111.905     -33.661    -164.056
  O      111.751     -34.225    -162.725
  C      111.188     -34.599    -165.040
  O      112.152     -35.354    -165.777
  C      110.396     -35.528    -164.135
  O      110.102     -36.782    -164.744
  C      111.309     -35.582    -162.906
  N      110.621     -36.105    -161.734
  C      111.395     -36.864    -160.851
  O      112.591     -37.053    -161.081
  N      110.790     -37.434    -159.762
  C      109.512     -37.300    -159.595
  N      108.968     -37.915    -158.511
  C      108.651     -36.530    -160.517
  C      109.266     -35.962    -161.553
  O      112.928     -29.560    -164.035
  O      112.471     -29.543    -166.574
  H      109.474     -37.269    -164.166
  H      113.456     -29.573    -166.600
  H      107.589     -36.453    -160.336
  H      108.716     -35.379    -162.285
  H      112.193     -36.205    -163.100
  H      109.444     -35.050    -163.870
  H      110.540     -34.073    -165.739
  H      112.984     -33.630    -164.253
  H      109.593     -38.438    -157.909
  H      110.275     -32.229    -164.003
  H      107.984     -37.902    -158.291
  H      111.782     -31.686    -163.214
  P      111.965     -35.378    -167.371
  C      113.409     -33.267    -167.810
  O      113.240     -34.660    -168.029
  O      110.768     -34.345    -167.617
  O      111.644     -36.731    -167.912
  H      109.968     -34.827    -167.900
  H      114.296     -32.933    -168.307
  H      113.496     -33.079    -166.760
  H      112.563     -32.740    -168.198

 6  7  8  9  10  11  12  13  14  15  16  26  30  31  32  33  35 0
 6-311+G(2d,p)
 ****
 37  38 0
 6-311+G(2d,p)
 ****
 1  2  3  4  5  17  18  19  20  21  22  23  24  25 0
 3-21G
 ****
 27  28  29  34  36  39  40  41  42  43  44  45  46 0
 3-21G
 ****


