%nproc=1
%NoSave
%Mem=1900MB
#P OB98/GEN NMR

erre ene a

0 1
  C      157.433     -60.149     -81.448
  O      158.770     -59.885     -81.819
  P      159.126     -58.982     -83.095
  C      159.918     -60.964     -84.529
  O      158.947     -59.941     -84.371
  C      160.241     -61.203     -86.005
  O      159.095     -61.813     -86.661
  C      160.606     -59.938     -86.793
  O      161.574     -60.336     -87.768
  C      159.292     -59.580     -87.462
  O      159.462     -58.713     -88.576
  C      158.743     -60.976     -87.784
  N      157.306     -60.955     -88.027
  C      156.890     -61.105     -89.353
  O      157.722     -61.169     -90.261
  N      155.546     -61.124     -89.628
  C      154.696     -60.906     -88.675
  N      153.378     -60.941     -89.006
  C      155.096     -60.617     -87.285
  C      156.402     -60.672     -87.030
  O      160.433     -58.269     -83.025
  O      157.869     -58.000     -83.224
  H      159.905     -57.894     -88.265
  H      157.927     -57.277     -82.550
  H      154.354     -60.385     -86.536
  H      156.790     -60.475     -86.041
  H      159.239     -61.391     -88.671
  H      158.639     -59.072     -86.742
  H      160.994     -59.130     -86.169
  H      161.065     -61.926     -86.057
  H      153.146     -61.157     -89.967
  H      159.510     -61.887     -84.106
  H      152.635     -60.865     -88.327
  H      160.824     -60.712     -83.968
  P      162.895     -59.468     -88.034
  C      162.292     -58.500     -90.326
  O      162.461     -58.226     -88.946
  O      164.068     -60.241     -88.540
  O      163.213     -58.787     -86.618
  H      164.128     -58.450     -86.619
  H      161.738     -57.677     -90.786
  H      161.738     -59.430     -90.476
  H      163.271     -58.579     -90.805
  H      157.421     -60.767     -80.575
  H      156.934     -60.653     -82.249
  H      156.932     -59.227     -81.240

 3  4  5  6  7  8  9  10  11  12  13  23  27  28  29  30  32 0
 6-311+G(2d,p)
 ****
 34  35 0
 6-311+G(2d,p)
 ****
 1  2  14  15  16  17  18  19  20  21  22  24  25  26 0
 3-21G
 ****
 31  33  36  37  38  39  40  41  42  43  44  45  46 0
 3-21G
 ****


