%nproc=1
%NoSave
%Mem=1900MB
#P OB98/GEN NMR

erre ene a

0 1
  C      581.114     256.503     635.896
  O      580.757     257.210     634.724
  H      580.204     256.189     636.408
  H      581.693     257.148     636.567
  H      581.703     255.617     635.632
  P      581.962     257.857     633.879
  C      581.845     259.927     635.465
  O      582.638     258.887     634.927
  C      582.598     261.262     635.387
  O      583.898     261.138     635.987
  C      582.857     261.750     633.959
  O      581.722     262.331     633.354
  C      583.939     262.772     634.236
  O      583.356     263.957     634.821
  C      584.807     262.009     635.266
  N      585.882     261.245     634.631
  C      587.042     261.943     634.299
  O      587.134     263.158     634.503
  N      588.074     261.272     633.675
  C      587.971     259.990     633.441
  N      589.011     259.380     632.822
  C      586.772     259.212     633.799
  C      585.777     259.893     634.386
  O      581.213     258.845     632.862
  O      582.904     256.902     633.242
  H      582.902     263.669     635.631
  H      581.874     259.407     632.394
  H      586.721     258.151     633.572
  H      584.877     259.379     634.684
  H      585.257     262.707     635.988
  H      584.473     263.095     633.341
  H      583.272     260.953     633.328
  H      582.033     261.999     635.971
  H      589.798     259.964     632.542
  H      581.630     259.684     636.522
  H      588.958     258.442     632.469
  H      580.890     260.016     634.916
  P      581.731     262.492     631.758
  C      582.181     265.022     631.287
  O      582.723     263.703     631.412
  O      580.281     263.092     631.428
  O      581.992     261.228     631.004
  H      579.957     262.766     630.574
  H      582.967     265.710     631.056
  H      581.718     265.306     632.209
  H      581.453     265.036     630.503

 6  7  8  9  10  11  12  13  14  15  16  26  30  31  32  33  35 0
 6-311+G(2d,p)
 ****
 37  38 0
 6-311+G(2d,p)
 ****
 1  2  3  4  5  17  18  19  20  21  22  23  24  25 0
 3-21G
 ****
 27  28  29  34  36  39  40  41  42  43  44  45  46 0
 3-21G
 ****


