%nproc=1
%NoSave
%Mem=1900MB
#P OB98/GEN NMR

erre ene a

0 1
  C      -91.019      34.302     999.969
  O      -89.675      34.460    1000.387
  H      -91.675      34.577    1000.797
  H      -91.213      33.261     999.691
  H      -91.227      34.953     999.114
  P      -88.503      33.999     999.391
  C      -85.992      34.577     999.681
  O      -87.148      33.976    1000.264
  C      -84.890      34.764    1000.733
  O      -85.271      35.882    1001.610
  C      -84.668      33.538    1001.632
  O      -83.282      33.539    1002.029
  C      -85.574      33.859    1002.816
  O      -85.287      33.028    1003.914
  C      -85.294      35.362    1002.961
  N      -86.321      36.027    1003.776
  C      -86.021      36.186    1005.131
  O      -84.952      35.749    1005.582
  N      -86.944      36.785    1005.952
  C      -88.087      37.150    1005.462
  N      -88.963      37.732    1006.326
  C      -88.474      36.936    1004.035
  C      -87.551      36.393    1003.256
  O      -88.409      34.750     998.103
  O      -88.793      32.450     999.136
  H      -85.956      33.137    1004.632
  H      -89.179      32.320     998.252
  H      -89.449      37.250    1003.698
  H      -87.738      36.204    1002.213
  H      -84.315      35.538    1003.407
  H      -86.634      33.682    1002.554
  H      -84.923      32.587    1001.132
  H      -83.963      35.068    1000.234
  H      -88.661      37.848    1007.284
  H      -86.301      35.542     999.274
  H      -89.905      38.040    1006.070
  H      -85.617      33.959     998.863
  P      -82.243      32.415    1001.548
  C      -80.080      32.508    1000.128
  O      -80.837      33.118    1001.188
  O      -82.772      31.517    1000.478
  O      -81.896      31.581    1002.879
  H      -81.684      30.672    1002.628
  H      -79.173      33.055     999.977
  H      -80.656      32.518     999.227
  H      -79.848      31.497    1000.392

 6  7  8  9  10  11  12  13  14  15  16  26  30  31  32  33  35 0
 6-311+G(2d,p)
 ****
 37  38 0
 6-311+G(2d,p)
 ****
 1  2  3  4  5  17  18  19  20  21  22  23  24  25 0
 3-21G
 ****
 27  28  29  34  36  39  40  41  42  43  44  45  46 0
 3-21G
 ****


