%nproc=1
%NoSave
%Mem=1900MB
#P OB98/GEN NMR

erre ene a

0 1
  C      114.046     613.215     482.681
  O      114.450     614.522     482.312
  P      115.577     615.241     483.205
  C      115.050     617.477     484.461
  O      114.823     616.068     484.339
  C      114.107     618.235     483.535
  O      112.725     617.883     483.823
  C      114.177     619.751     483.693
  O      115.297     620.282     483.015
  C      112.843     620.194     483.102
  O      112.922     620.272     481.668
  C      111.903     619.030     483.526
  N      111.051     619.400     484.651
  C      110.023     620.302     484.369
  O      109.848     620.783     483.255
  N      109.227     620.649     485.421
  C      109.380     620.244     486.713
  O      108.675     620.636     487.642
  C      110.520     619.319     486.964
  C      111.279     618.951     485.943
  O      116.169     616.371     482.235
  O      116.642     614.332     483.704
  H      112.004     620.210     481.334
  H      117.126     616.474     482.393
  H      108.469     621.280     485.227
  H      110.664     618.981     487.977
  H      112.116     618.283     486.097
  H      111.268     618.744     482.681
  H      112.544     621.181     483.466
  H      114.201     620.014     484.759
  H      114.314     617.932     482.493
  H      116.095     617.683     484.179
  H      114.909     617.772     485.497
  P      115.841     621.714     483.497
  C      115.549     623.508     481.615
  O      114.963     622.780     482.673
  O      117.285     621.738     482.818
  O      115.854     621.871     484.984
  H      117.315     621.261     481.973
  H      116.286     622.909     481.067
  H      116.041     624.404     482.012
  H      114.762     623.823     480.926
  H      113.296     612.868     482.001
  H      113.647     613.232     483.674
  H      114.890     612.558     482.647

 3  4  5  6  7  8  9  10  11  12  13  23  28  29  30  31  32 0
 6-311+G(2d,p)
 ****
 33  34 0
 6-311+G(2d,p)
 ****
 1  2  14  15  16  17  18  19  20  21  22  24  25  26 0
 3-21G
 ****
 27  35  36  37  38  39  40  41  42  43  44  45 0
 3-21G
 ****


