%nproc=1
%NoSave
%Mem=1900MB
#P OB98/GEN NMR

erre ene a

0 1
  C       13.770    -113.451     -35.788
  O       14.362    -112.268     -35.289
  H       13.201    -113.925     -34.985
  H       14.543    -114.144     -36.130
  H       13.089    -113.214     -36.611
  P       15.267    -111.432     -36.317
  C       17.309    -112.018     -37.805
  O       16.509    -112.380     -36.689
  C       18.480    -112.984     -37.957
  O       18.027    -114.260     -38.460
  C       19.572    -112.505     -38.905
  O       20.462    -111.614     -38.253
  C       20.233    -113.822     -39.285
  O       21.157    -114.262     -38.269
  C       19.030    -114.770     -39.377
  N       18.744    -117.709     -43.471
  C       19.357    -117.931     -42.257
  N       20.042    -119.090     -42.134
  N       19.315    -117.093     -41.256
  C       18.622    -115.964     -41.536
  C       17.956    -115.634     -42.693
  C       17.986    -116.587     -43.782
  O       17.409    -116.478     -44.859
  N       17.354    -114.408     -42.587
  C       17.687    -113.980     -41.384
  N       18.470    -114.883     -40.714
  O       15.933    -110.302     -35.397
  O       14.539    -110.839     -37.474
  H       20.659    -114.542     -37.483
  H       16.083    -109.502     -35.934
  H       18.798    -118.401     -44.197
  H       17.389    -113.033     -40.957
  H       19.280    -115.787     -39.053
  H       20.806    -113.733     -40.209
  H       20.382    -119.593     -42.942
  H       19.136    -112.045     -39.800
  H       20.514    -119.251     -41.253
  H       18.892    -113.159     -36.954
  H       17.696    -111.005     -37.653
  H       16.691    -112.031     -38.710
  P       21.562    -110.867     -39.154
  C       23.328    -112.072     -40.636
  O       22.773    -111.902     -39.338
  O       22.167    -109.767     -38.162
  O       21.032    -110.262     -40.409
  H       22.643    -109.084     -38.671
  H       24.120    -112.790     -40.594
  H       23.713    -111.136     -40.985
  H       22.569    -112.418     -41.306

 6  7  8  9  10  11  12  13  14  15  26  29  33  34 0
 6-311+G(2d,p)
 ****
 36  38  39  40  41 0
 6-311+G(2d,p)
 ****
 1  2  3  4  5  16  17  18  19  20  21  22  23  24  25 0
 3-21G
 ****
 27  28  30  31  32  35  37  42  43  44  45  46  47 0
 3-21G
 ****
 48  49 0
 3-21G
 ****


