%nproc=1
%NoSave
%Mem=1900MB
#P OB98/GEN NMR

erre ene a

0 1
  C     -145.727     120.656    -105.347
  O     -146.122     119.307    -105.207
  H     -145.626     121.096    -104.352
  H     -146.483     121.217    -105.900
  H     -144.762     120.727    -105.860
  P     -146.215     118.387    -106.516
  C     -148.565     119.258    -107.126
  O     -147.207     119.130    -107.535
  C     -149.479     119.249    -108.348
  O     -149.305     120.464    -109.115
  C     -149.203     118.103    -109.317
  O     -149.712     116.883    -108.814
  C     -149.889     118.625    -110.568
  O     -151.311     118.426    -110.501
  C     -149.551     120.136    -110.502
  N     -148.406     120.499    -111.339
  C     -148.654     120.604    -112.704
  O     -149.760     120.410    -113.205
  N     -147.569     120.906    -113.484
  C     -146.278     121.012    -113.050
  O     -145.313     121.062    -113.807
  C     -146.088     120.962    -111.594
  C     -147.141     120.697    -110.817
  O     -146.519     116.945    -106.275
  O     -144.783     118.578    -107.210
  H     -144.222     117.803    -107.011
  H     -151.710     119.067    -111.121
  H     -147.729     120.940    -114.482
  H     -145.088     121.108    -111.204
  H     -147.021     120.626    -109.743
  H     -150.413     120.738    -110.822
  H     -149.541     118.127    -111.475
  H     -148.126     118.026    -109.510
  H     -150.519     119.219    -107.997
  H     -148.679     120.209    -106.594
  H     -148.815     118.436    -106.446
  P     -149.191     115.475    -109.368
  C     -151.258     114.981    -110.797
  O     -149.860     115.228    -110.804
  O     -149.321     114.331    -108.417
  O     -147.651     115.741    -109.732
  H     -147.097     115.070    -109.286
  H     -151.599     114.831    -111.800
  H     -151.766     115.820    -110.369
  H     -151.463     114.106    -110.216

 6  7  8  9  10  11  12  13  14  15  16  27  31  32  33  34  35 0
 6-311+G(2d,p)
 ****
 36  37 0
 6-311+G(2d,p)
 ****
 1  2  3  4  5  17  18  19  20  21  22  23  24  25 0
 3-21G
 ****
 26  28  29  30  38  39  40  41  42  43  44  45 0
 3-21G
 ****


