%nproc=1
%NoSave
%Mem=1900MB
#P OB98/GEN NMR

erre ene a

0 1
  C        5.681     481.239      61.378
  O        6.732     481.945      62.013
  P        6.347     482.891      63.252
  C        8.695     483.886      63.782
  O        7.395     484.104      63.259
  C        9.605     485.059      63.448
  O        9.916     485.058      62.042
  C        9.009     486.430      63.733
  O        9.025     486.726      65.125
  C        9.918     487.317      62.889
  O       11.163     487.541      63.568
  C       10.148     486.440      61.642
  N        8.730     490.114      58.373
  C        9.632     490.105      59.381
  N        9.940     489.093      60.222
  C        9.200     488.003      59.931
  C        8.228     487.876      58.956
  C        8.002     488.996      58.144
  N        7.075     489.013      57.119
  N        7.677     486.616      58.979
  C        8.305     485.983      59.940
  N        9.247     486.778      60.548
  O        6.780     482.021      64.526
  O        4.896     483.292      63.316
  H       11.772     487.949      62.924
  H        6.177     482.174      65.279
  H       10.193     491.032      59.534
  H        8.124     484.962      60.252
  H       11.170     486.512      61.259
  H        9.481     488.297      62.667
  H        7.976     486.486      63.350
  H       10.550     484.929      64.002
  H        9.114     482.975      63.348
  H        6.874     489.888      56.697
  H        6.448     488.218      57.046
  H        8.616     483.748      64.865
  P        7.919     487.741      65.682
  C        8.962     487.837      68.019
  O        8.691     488.552      66.832
  O        6.961     486.770      66.510
  O        7.253     488.583      64.633
  H        7.462     486.184      67.108
  H        9.525     488.483      68.708
  H        9.545     486.931      67.812
  H        8.019     487.558      68.520
  H        6.079     480.653      60.576
  H        4.967     481.935      60.991
  H        5.204     480.596      62.087

 3  4  5  6  7  8  9  10  11  12  22  25  29  30  31  32 0
 6-311+G(2d,p)
 ****
 33  36  37 0
 6-311+G(2d,p)
 ****
 1  2  13  14  15  16  17  18  19  20  21  23  24  26 0
 3-21G
 ****
 27  28  34  35  38  39  40  41  42  43  44  45  46  47  48 0
 3-21G
 ****


