%nproc=1
%NoSave
%Mem=1900MB
#P OB98/GEN NMR

erre ene a

0 1
  C     -298.271      -2.237    -179.099
  O     -298.663      -2.009    -180.455
  P     -300.000      -2.698    -181.010
  C     -300.635      -4.543    -182.682
  O     -299.598      -3.977    -181.895
  C     -300.091      -5.388    -183.845
  O     -299.364      -4.558    -184.790
  C     -299.148      -6.521    -183.414
  O     -299.386      -7.622    -184.300
  C     -297.781      -5.917    -183.665
  O     -296.759      -6.899    -183.742
  C     -298.054      -5.138    -184.956
  N     -297.046      -4.126    -185.222
  C     -296.083      -4.421    -186.188
  O     -296.049      -5.539    -186.702
  N     -295.170      -3.451    -186.525
  C     -295.129      -2.347    -185.844
  N     -294.223      -1.404    -186.215
  C     -296.014      -2.077    -184.692
  C     -296.954      -2.989    -184.458
  O     -300.982      -1.774    -181.648
  O     -300.624      -3.372    -179.689
  H     -295.887      -6.451    -183.763
  H     -301.596      -3.329    -179.745
  H     -295.887      -1.179    -184.102
  H     -297.657      -2.876    -183.644
  H     -298.105      -5.819    -185.816
  H     -297.528      -5.231    -182.849
  H     -299.307      -6.852    -182.384
  H     -300.951      -5.812    -184.380
  H     -293.605      -1.612    -186.990
  H     -301.258      -3.739    -183.084
  H     -294.165      -0.497    -185.768
  H     -301.288      -5.140    -182.036
  P     -299.836      -9.033    -183.684
  C     -298.642     -11.225    -182.957
  O     -298.512      -9.884    -183.383
  O     -300.422      -9.785    -184.980
  O     -300.876      -8.981    -182.612
  H     -301.065     -10.457    -184.689
  H     -297.673     -11.724    -183.071
  H     -299.381     -11.763    -183.555
  H     -298.934     -11.254    -181.904
  H     -297.364      -1.707    -178.896
  H     -298.115      -3.284    -178.944
  H     -299.041      -1.891    -178.442

 3  4  5  6  7  8  9  10  11  12  13  23  27  28  29  30  32 0
 6-311+G(2d,p)
 ****
 34  35 0
 6-311+G(2d,p)
 ****
 1  2  14  15  16  17  18  19  20  21  22  24  25  26 0
 3-21G
 ****
 31  33  36  37  38  39  40  41  42  43  44  45  46 0
 3-21G
 ****


