%nproc=1
%NoSave
%Mem=1900MB
#P OB98/GEN NMR

erre ene a

0 1
  C      170.259    -100.629      72.813
  O      169.604    -101.241      73.928
  P      169.722    -100.506      75.348
  C      167.351    -101.461      75.840
  O      168.644    -101.147      76.344
  C      166.744    -102.621      76.633
  O      167.464    -103.845      76.398
  C      166.795    -102.410      78.136
  O      165.777    -101.521      78.550
  C      166.625    -103.830      78.662
  O      165.240    -104.159      78.863
  C      167.236    -104.695      77.536
  N      168.456    -105.369      77.946
  C      168.318    -106.315      78.967
  O      167.216    -106.519      79.479
  N      169.436    -106.984      79.396
  C      170.590    -106.713      78.871
  N      171.663    -107.404      79.342
  C      170.782    -105.703      77.811
  C      169.683    -105.073      77.401
  O      169.134     -99.047      75.056
  O      171.116    -100.441      75.881
  H      165.216    -105.130      78.989
  H      169.586     -98.384      75.608
  H      171.765    -105.506      77.410
  H      169.729    -104.314      76.626
  H      166.520    -105.461      77.213
  H      167.123    -103.961      79.627
  H      167.781    -102.024      78.426
  H      165.702    -102.756      76.309
  H      171.495    -108.087      80.070
  H      167.412    -101.724      74.783
  H      172.606    -107.269      79.010
  H      166.720    -100.567      75.906
  P      166.203    -100.029      78.942
  C      163.958     -98.818      78.652
  O      164.882     -99.370      79.569
  O      166.278     -99.314      77.509
  O      167.465     -99.858      79.717
  H      166.624     -98.409      77.603
  H      163.028     -98.598      79.181
  H      163.744     -99.525      77.847
  H      164.356     -97.888      78.238
  H      170.099    -101.221      71.936
  H      171.308    -100.560      73.010
  H      169.859     -99.648      72.659

 3  4  5  6  7  8  9  10  11  12  13  21  23  27  28  29  30  32 0
 6-311+G(2d,p)
 ****
 34  35 0
 6-311+G(2d,p)
 ****
 1  2  14  15  16  17  18  19  20  22  24  25  26 0
 3-21G
 ****
 31  33  36  37  38  39  40  41  42  43  44  45  46 0
 3-21G
 ****


