%nproc=1
%NoSave
%Mem=1900MB
#P OB98/GEN NMR

erre ene a

0 1
  C      936.547    1056.146    -194.993
  O      935.384    1055.330    -195.195
  P      934.230    1055.161    -194.097
  C      934.319    1052.654    -193.505
  O      933.618    1053.681    -194.193
  C      933.985    1051.263    -194.079
  O      934.522    1051.131    -195.401
  C      934.564    1050.091    -193.291
  O      933.819    1049.866    -192.109
  C      934.479    1048.969    -194.329
  O      933.165    1048.401    -194.374
  C      934.814    1049.731    -195.629
  N      936.179    1049.525    -196.061
  C      936.365    1048.695    -197.190
  O      935.379    1048.141    -197.705
  N      937.625    1048.498    -197.662
  C      938.639    1049.023    -197.037
  N      939.877    1048.803    -197.574
  C      938.503    1049.831    -195.819
  C      937.271    1050.042    -195.397
  O      933.203    1056.245    -194.124
  O      935.000    1055.152    -192.689
  H      933.167    1047.781    -195.122
  H      934.415    1055.538    -192.010
  H      939.377    1050.218    -195.321
  H      937.075    1050.621    -194.497
  H      934.125    1049.413    -196.427
  H      935.191    1048.159    -194.104
  H      935.616    1050.284    -193.044
  H      932.898    1051.183    -194.144
  H      939.936    1048.249    -198.423
  H      934.024    1052.681    -192.444
  H      940.728    1049.156    -197.169
  H      935.391    1052.846    -193.574
  P      934.561    1049.474    -190.745
  C      932.767    1048.075    -189.560
  O      933.455    1049.318    -189.612
  O      935.733    1050.321    -190.389
  O      935.029    1047.945    -190.990
  H      935.850    1047.792    -190.506
  H      932.357    1047.953    -188.542
  H      933.436    1047.246    -189.779
  H      931.942    1048.100    -190.277
  H      937.170    1056.101    -195.862
  H      937.092    1055.787    -194.145
  H      936.247    1057.159    -194.822

 3  4  5  6  7  8  9  10  11  12  13  23  27  28  29  30  32 0
 6-311+G(2d,p)
 ****
 34  35 0
 6-311+G(2d,p)
 ****
 1  2  14  15  16  17  18  19  20  21  22  24  25  26 0
 3-21G
 ****
 31  33  36  37  38  39  40  41  42  43  44  45  46 0
 3-21G
 ****


