%nproc=1
%NoSave
%Mem=1900MB
#P OB98/GEN NMR

erre ene a

0 1
  C     -450.698    -295.380    -567.876
  O     -451.864    -295.499    -567.088
  H     -450.704    -294.404    -568.368
  H     -450.674    -296.163    -568.639
  H     -449.808    -295.451    -567.244
  P     -452.081    -296.893    -566.318
  C     -451.584    -296.297    -563.841
  O     -452.572    -296.529    -564.836
  C     -452.191    -295.491    -562.694
  O     -452.531    -294.166    -563.153
  C     -453.484    -296.074    -562.139
  O     -453.246    -297.169    -561.266
  C     -454.062    -294.869    -561.429
  O     -453.512    -294.719    -560.105
  C     -453.632    -293.700    -562.343
  N     -454.740    -293.201    -563.150
  C     -455.556    -292.250    -562.538
  O     -455.372    -291.849    -561.384
  N     -456.611    -291.805    -563.279
  C     -456.954    -292.230    -564.524
  O     -457.963    -291.845    -565.110
  C     -456.053    -293.223    -565.130
  C     -455.004    -293.659    -564.424
  O     -450.584    -297.426    -566.110
  O     -452.935    -297.885    -567.039
  H     -450.391    -298.129    -566.753
  H     -452.593    -294.406    -560.223
  H     -457.221    -291.128    -562.844
  H     -456.291    -293.575    -566.124
  H     -454.340    -294.408    -564.840
  H     -453.246    -292.866    -561.743
  H     -455.143    -294.945    -561.308
  H     -454.155    -296.359    -562.958
  H     -451.440    -295.395    -561.901
  H     -450.756    -295.730    -564.279
  H     -451.202    -297.260    -563.481
  P     -454.507    -297.993    -560.724
  C     -452.695    -299.886    -560.422
  O     -453.911    -299.298    -559.986
  O     -455.119    -298.570    -562.084
  O     -455.452    -297.191    -559.894
  H     -454.440    -298.796    -562.740
  H     -452.470    -300.735    -559.810
  H     -451.904    -299.170    -560.343
  H     -452.794    -300.197    -561.441

 6  7  8  9  10  11  12  13  14  15  16  27  31  32  33  34  35 0
 6-311+G(2d,p)
 ****
 36  37 0
 6-311+G(2d,p)
 ****
 1  2  3  4  5  17  18  19  20  21  22  23  24  25 0
 3-21G
 ****
 26  28  29  30  38  39  40  41  42  43  44  45 0
 3-21G
 ****


