%nproc=1
%NoSave
%Mem=1900MB
#P OB98/GEN NMR

erre ene a

0 1
  C       15.930      -2.179      50.171
  O       15.749      -1.395      48.994
  P       16.784      -0.305      48.460
  C       17.746       0.137      46.062
  O       16.632      -0.209      46.871
  C       17.659      -0.435      44.637
  O       17.706      -1.885      44.694
  C       16.322      -0.070      43.992
  O       16.153       1.189      43.371
  C       15.991      -1.254      43.095
  O       16.425      -1.059      41.748
  C       16.760      -2.410      43.740
  N       13.294      -6.126      43.159
  C       13.885      -5.327      42.201
  N       13.468      -5.501      40.929
  N       14.791      -4.426      42.469
  C       15.052      -4.294      43.789
  C       14.518      -5.013      44.833
  C       13.557      -6.050      44.519
  O       13.012      -6.794      45.328
  N       15.007      -4.585      46.040
  C       15.816      -3.593      45.730
  N       15.884      -3.382      44.372
  O       18.170      -0.412      49.002
  O       16.161       1.087      48.986
  H       16.042      -1.769      41.204
  H       16.918       1.679      49.170
  H       12.619      -6.822      42.894
  H       16.378      -3.003      46.443
  H       17.346      -2.960      42.994
  H       14.907      -1.413      43.051
  H       12.692      -6.092      40.674
  H       15.568      -0.090      44.790
  H       13.735      -4.776      40.261
  H       18.524      -0.131      44.042
  H       18.637      -0.240      46.572
  H       17.851       1.222      46.016
  P       15.467       2.482      44.021
  C       16.268       4.895      44.337
  O       16.230       3.775      43.470
  O       15.924       2.433      45.554
  O       13.979       2.530      43.911
  H       15.363       3.018      46.095
  H       16.525       5.785      43.758
  H       17.030       4.738      45.105
  H       15.296       5.051      44.815
  H       15.090      -2.829      50.299
  H       16.014      -1.533      51.020
  H       16.822      -2.763      50.077

 3  4  5  6  7  8  9  10  11  12  23  26  30  31 0
 6-311+G(2d,p)
 ****
 33  35  36  37  38 0
 6-311+G(2d,p)
 ****
 1  2  13  14  15  16  17  18  19  20  21  22  24  25 0
 3-21G
 ****
 27  28  29  32  34  39  40  41  42  43  44  45  46  47  48  49 0
 3-21G
 ****


