%nproc=1
%NoSave
%Mem=1900MB
#P OB98/GEN NMR

erre ene a

0 1
  C      220.415    -457.994    -982.072
  O      221.803    -458.116    -982.311
  H      220.136    -456.938    -982.160
  H      220.180    -458.335    -981.061
  H      219.844    -458.574    -982.802
  P      222.407    -459.605    -982.320
  C      223.762    -459.297    -984.508
  O      222.693    -459.974    -983.861
  C      223.550    -459.303    -986.026
  O      223.900    -460.624    -986.553
  C      222.104    -459.007    -986.465
  O      222.158    -458.264    -987.692
  C      221.553    -460.387    -986.772
  O      220.423    -460.350    -987.644
  C      222.792    -461.051    -987.376
  N      219.658    -464.843    -988.412
  C      219.492    -463.481    -988.547
  N      218.306    -463.060    -989.035
  N      220.405    -462.606    -988.234
  C      221.559    -463.172    -987.785
  C      221.851    -464.498    -987.604
  C      220.811    -465.460    -987.933
  O      220.894    -466.673    -987.815
  N      223.118    -464.662    -987.119
  C      223.592    -463.434    -986.999
  N      222.687    -462.496    -987.396
  O      221.133    -460.504    -981.944
  O      223.552    -459.836    -981.386
  H      220.684    -459.843    -988.440
  H      221.106    -460.663    -980.984
  H      218.921    -465.477    -988.655
  H      224.581    -463.175    -986.636
  H      222.980    -460.725    -988.395
  H      221.252    -460.888    -985.843
  H      217.567    -463.678    -989.335
  H      221.512    -458.457    -985.727
  H      218.178    -462.059    -989.176
  H      224.253    -458.595    -986.474
  H      224.699    -459.808    -984.279
  H      223.818    -458.266    -984.141
  P      221.490    -456.805    -987.716
  C      223.892    -455.863    -988.087
  O      222.641    -455.728    -987.413
  O      220.627    -456.792    -986.366
  O      220.651    -456.536    -988.922
  H      219.871    -456.178    -986.471
  H      224.549    -455.076    -987.781
  H      223.736    -455.807    -989.144
  H      224.329    -456.808    -987.841

 6  7  8  9  10  11  12  13  14  15  26  29  33  34 0
 6-311+G(2d,p)
 ****
 36  38  39  40  41 0
 6-311+G(2d,p)
 ****
 1  2  3  4  5  16  17  18  19  20  21  22  23  24  25 0
 3-21G
 ****
 27  28  30  31  32  35  37  42  43  44  45  46  47 0
 3-21G
 ****
 48  49 0
 3-21G
 ****


