%nproc=1
%NoSave
%Mem=1900MB
#P OB98/GEN NMR

erre ene a

0 1
  C      -63.608     -55.586      45.730
  O      -62.534     -55.508      46.648
  H      -64.398     -56.203      46.164
  H      -63.267     -56.050      44.800
  H      -64.009     -54.590      45.525
  P      -61.374     -54.460      46.301
  C      -59.409     -56.188      46.463
  O      -60.018     -55.009      46.969
  C      -58.164     -56.526      47.277
  O      -57.585     -57.770      46.836
  C      -57.028     -55.528      47.125
  O      -57.283     -54.310      47.789
  C      -55.875     -56.318      47.727
  O      -55.839     -56.198      49.154
  C      -56.216     -57.768      47.308
  N      -55.288     -58.275      46.315
  C      -54.192     -58.985      46.827
  O      -54.081     -59.158      48.040
  N      -53.241     -59.441      45.953
  C      -53.354     -59.190      44.687
  N      -52.359     -59.643      43.879
  C      -54.491     -58.445      44.108
  C      -55.412     -58.019      44.971
  O      -61.754     -53.208      47.221
  O      -61.239     -54.135      44.852
  H      -55.047     -56.691      49.452
  H      -61.936     -53.443      48.145
  H      -54.546     -58.273      43.043
  H      -56.280     -57.465      44.633
  H      -56.186     -58.437      48.178
  H      -54.909     -55.969      47.354
  H      -56.810     -55.363      46.061
  H      -58.462     -56.633      48.328
  H      -51.572     -60.100      44.324
  H      -59.150     -56.064      45.406
  H      -52.300     -59.439      42.892
  H      -60.142     -56.997      46.532
  P      -56.853     -52.907      47.149
  C      -54.331     -53.336      47.452
  O      -55.438     -52.514      47.804
  O      -57.882     -51.830      47.220
  O      -56.427     -53.305      45.657
  H      -55.700     -53.947      45.596
  H      -53.451     -52.979      47.945
  H      -54.185     -53.303      46.393
  H      -54.525     -54.344      47.754

 6  7  8  9  10  11  12  13  14  15  16  26  30  31  32  33  35 0
 6-311+G(2d,p)
 ****
 37  38 0
 6-311+G(2d,p)
 ****
 1  2  3  4  5  17  18  19  20  21  22  23  24  25 0
 3-21G
 ****
 27  28  29  34  36  39  40  41  42  43  44  45  46 0
 3-21G
 ****


