%nproc=1
%NoSave
%Mem=1900MB
#P OB98/GEN NMR

erre ene a

0 1
  C      675.838    -693.718    1538.646
  O      676.854    -692.736    1538.667
  H      675.589    -693.998    1539.667
  H      676.172    -694.609    1538.107
  H      674.931    -693.313    1538.161
  P      677.384    -692.215    1537.245
  C      677.874    -693.411    1534.998
  O      677.634    -693.557    1536.391
  C      679.179    -694.112    1534.621
  O      679.029    -695.542    1534.720
  C      679.626    -693.844    1533.181
  O      680.354    -692.619    1533.108
  C      680.553    -695.036    1532.940
  O      681.840    -694.776    1533.525
  C      679.831    -696.175    1533.696
  N      679.587    -700.572    1531.068
  C      680.642    -699.910    1531.610
  N      680.636    -698.710    1532.253
  C      679.398    -698.209    1532.305
  C      678.234    -698.780    1531.787
  C      678.360    -700.020    1531.160
  N      677.290    -700.688    1530.597
  N      677.143    -697.961    1532.033
  C      677.638    -696.954    1532.731
  N      678.995    -697.043    1532.907
  O      678.512    -691.239    1537.292
  O      676.017    -691.645    1536.598
  H      682.143    -693.911    1533.163
  H      675.275    -692.239    1536.801
  H      681.603    -700.410    1531.521
  H      677.033    -696.147    1533.177
  H      680.568    -696.822    1534.219
  H      680.717    -695.231    1531.874
  H      678.798    -693.889    1532.476
  H      679.966    -693.810    1535.320
  H      677.936    -692.351    1534.741
  H      677.494    -701.466    1529.990
  H      676.403    -700.212    1530.555
  H      677.025    -693.843    1534.467
  P      680.153    -691.608    1531.873
  C      680.397    -691.849    1529.329
  O      680.748    -692.384    1530.598
  O      680.690    -690.237    1532.108
  O      678.567    -691.626    1531.606
  H      678.311    -690.862    1531.055
  H      680.844    -692.439    1528.557
  H      680.750    -690.841    1529.257
  H      679.333    -691.863    1529.218

 6  7  8  9  10  11  12  13  14  15  25  28  32  33  34  35 0
 6-311+G(2d,p)
 ****
 36  39  40 0
 6-311+G(2d,p)
 ****
 1  2  3  4  5  16  17  18  19  20  21  22  23  24 0
 3-21G
 ****
 26  27  29  30  31  37  38  41  42  43  44  45  46  47 0
 3-21G
 ****
 48 0
 3-21G
 ****


