%nproc=1
%NoSave
%Mem=1900MB
#P OB98/GEN NMR

erre ene a

0 1
  C       86.148    -436.204    -226.389
  O       86.036    -434.913    -226.954
  H       86.579    -436.879    -227.133
  H       85.161    -436.576    -226.105
  H       86.800    -436.181    -225.512
  P       85.531    -433.736    -225.991
  C       84.519    -432.653    -228.134
  O       85.257    -432.466    -226.938
  C       85.223    -431.948    -229.293
  O       85.495    -430.574    -228.903
  C       86.562    -432.590    -229.672
  O       86.732    -432.512    -231.091
  C       87.583    -431.703    -228.983
  O       88.874    -431.747    -229.574
  C       86.904    -430.332    -229.102
  N       87.407    -429.370    -228.127
  C       88.553    -428.656    -228.463
  O       89.127    -428.723    -229.549
  N       89.046    -427.831    -227.482
  C       88.533    -427.675    -226.230
  O       89.033    -426.936    -225.387
  C       87.329    -428.461    -225.928
  C       86.829    -429.261    -226.875
  O       86.852    -433.318    -225.194
  O       84.397    -434.083    -225.084
  H       86.933    -433.837    -224.371
  H       89.478    -431.210    -229.017
  H       89.876    -427.306    -227.712
  H       86.897    -428.368    -224.941
  H       85.950    -429.863    -226.684
  H       87.028    -429.931    -230.115
  H       87.682    -431.994    -227.932
  H       86.642    -433.629    -229.348
  H       84.544    -431.911    -230.154
  H       83.518    -432.229    -228.008
  H       84.430    -433.727    -228.341
  P       86.617    -433.881    -231.924
  C       88.625    -433.552    -233.564
  O       87.222    -433.562    -233.378
  O       85.040    -433.975    -232.161
  O       87.226    -435.047    -231.215
  H       84.617    -433.114    -232.315
  H       88.848    -433.323    -234.585
  H       89.024    -434.514    -233.319
  H       89.064    -432.811    -232.929

 6  7  8  9  10  11  12  13  14  15  16  27  31  32  33  34  35 0
 6-311+G(2d,p)
 ****
 36  37 0
 6-311+G(2d,p)
 ****
 1  2  3  4  5  17  18  19  20  21  22  23  24  25 0
 3-21G
 ****
 26  28  29  30  38  39  40  41  42  43  44  45 0
 3-21G
 ****


