%nproc=1
%NoSave
%Mem=1900MB
#P OB98/GEN NMR

erre ene a

0 1
  C      215.194    -131.243    -360.790
  O      214.945    -130.300    -359.770
  H      214.266    -131.415    -361.341
  H      215.523    -132.190    -360.354
  H      215.950    -130.866    -361.483
  P      216.189    -129.879    -358.843
  C      217.555    -131.105    -356.993
  O      216.491    -131.175    -357.940
  C      217.571    -132.360    -356.116
  O      216.270    -132.526    -355.501
  C      217.888    -133.640    -356.891
  O      218.793    -134.439    -356.133
  C      216.545    -134.336    -357.029
  O      216.678    -135.749    -357.169
  C      215.812    -133.868    -355.764
  N      214.362    -133.912    -355.926
  C      213.712    -135.079    -355.503
  O      214.365    -136.013    -355.032
  N      212.359    -135.185    -355.670
  C      211.707    -134.233    -356.266
  N      210.366    -134.403    -356.427
  C      212.352    -133.005    -356.774
  C      213.664    -132.912    -356.567
  O      215.535    -128.843    -357.815
  O      217.373    -129.341    -359.574
  H      216.867    -135.941    -358.118
  H      216.226    -128.340    -357.320
  H      211.770    -132.248    -357.279
  H      214.226    -132.043    -356.904
  H      216.087    -134.493    -354.902
  H      216.028    -133.957    -357.920
  H      218.325    -133.447    -357.871
  H      218.285    -132.202    -355.301
  H      209.959    -135.261    -356.076
  H      217.414    -130.218    -356.367
  H      209.768    -133.743    -356.900
  H      218.504    -131.019    -357.530
  P      219.943    -135.187    -356.977
  C      220.468    -137.643    -357.625
  O      219.500    -136.723    -357.144
  O      221.173    -135.248    -355.957
  O      220.293    -134.494    -358.254
  H      221.812    -134.538    -356.153
  H      220.034    -138.619    -357.684
  H      221.303    -137.664    -356.957
  H      220.797    -137.339    -358.597

 6  7  8  9  10  11  12  13  14  15  16  26  30  31  32  33  35 0
 6-311+G(2d,p)
 ****
 37  38 0
 6-311+G(2d,p)
 ****
 1  2  3  4  5  17  18  19  20  21  22  23  24  25 0
 3-21G
 ****
 27  28  29  34  36  39  40  41  42  43  44  45  46 0
 3-21G
 ****


