%nproc=1
%NoSave
%Mem=1900MB
#P OB98/GEN NMR

erre ene a

0 1
  C     -742.113     562.579      95.456
  O     -741.794     563.024      94.127
  P     -740.374     563.736      93.856
  C     -739.231     562.725      91.735
  O     -739.399     562.681      93.143
  C     -739.959     561.550      91.082
  O     -741.382     561.629      91.334
  C     -739.827     561.492      89.570
  O     -738.566     560.997      89.164
  C     -740.986     560.569      89.200
  O     -740.610     559.187      89.355
  C     -742.052     560.964      90.239
  N     -743.111     561.793      89.679
  C     -744.001     561.162      88.824
  O     -743.904     559.985      88.491
  N     -745.009     561.949      88.326
  C     -745.165     563.286      88.541
  O     -746.076     563.940      88.053
  C     -744.140     563.917      89.387
  C     -743.173     563.156      89.903
  O     -739.757     563.812      95.338
  O     -740.441     565.097      93.245
  H     -740.035     558.972      88.596
  H     -739.149     564.570      95.397
  H     -745.686     561.502      87.730
  H     -744.212     564.982      89.565
  H     -742.412     563.607      90.532
  H     -742.506     560.067      90.674
  H     -741.312     560.696      88.162
  H     -740.014     562.483      89.137
  H     -739.587     560.620      91.538
  H     -738.165     562.660      91.497
  H     -739.617     563.677      91.357
  P     -737.477     562.085      88.700
  C     -735.668     561.732      90.551
  O     -736.717     562.527      90.042
  O     -738.427     563.325      88.340
  O     -736.614     561.618      87.573
  H     -739.212     563.363      88.907
  H     -735.102     561.251      89.753
  H     -736.083     560.973      91.220
  H     -734.992     562.376      91.125
  H     -743.085     562.133      95.459
  H     -742.102     563.415      96.124
  H     -741.389     561.859      95.774

 3  4  5  6  7  8  9  10  11  12  13  23  28  29  30  31  32 0
 6-311+G(2d,p)
 ****
 33  34 0
 6-311+G(2d,p)
 ****
 1  2  14  15  16  17  18  19  20  21  22  24  25  26 0
 3-21G
 ****
 27  35  36  37  38  39  40  41  42  43  44  45 0
 3-21G
 ****


