%nproc=1
%NoSave
%Mem=1900MB
#P OB98/GEN NMR

erre ene a

0 1
  C       76.901    -173.010     168.253
  O       76.044    -174.123     168.088
  H       77.508    -172.899     167.351
  H       77.563    -173.180     169.105
  H       76.322    -172.093     168.405
  P       74.841    -174.273     169.141
  C       75.981    -176.417     170.057
  O       74.792    -175.823     169.557
  C       75.965    -177.923     169.807
  O       77.143    -178.539     170.370
  C       74.769    -178.649     170.415
  O       73.625    -178.570     169.574
  C       75.303    -180.071     170.477
  O       75.257    -180.666     169.162
  C       76.763    -179.843     170.895
  N       78.091    -182.687     174.880
  C       77.904    -183.046     173.557
  N       78.091    -184.349     173.257
  N       77.562    -182.206     172.616
  C       77.386    -180.939     173.067
  C       77.533    -180.466     174.351
  C       77.929    -181.400     175.378
  O       78.118    -181.131     176.564
  N       77.271    -179.123     174.425
  C       76.942    -178.792     173.193
  N       76.992    -179.858     172.331
  O       73.543    -174.085     168.221
  O       74.855    -173.297     170.267
  H       74.336    -180.944     169.006
  H       73.192    -173.183     168.352
  H       78.344    -183.377     175.567
  H       76.667    -177.795     172.872
  H       77.441    -180.583     170.456
  H       74.718    -180.713     171.137
  H       78.333    -185.053     173.937
  H       74.550    -178.293     171.430
  H       77.963    -184.634     172.293
  H       76.002    -178.082     168.722
  H       76.048    -176.228     171.134
  H       76.843    -175.965     169.557
  P       72.275    -177.956     170.184
  C       71.330    -180.165     171.161
  O       71.184    -179.136     170.193
  O       71.770    -176.988     169.012
  O       72.435    -177.217     171.468
  H       71.847    -176.055     169.296
  H       70.538    -180.876     171.048
  H       71.291    -179.740     172.142
  H       72.271    -180.655     171.022

 6  7  8  9  10  11  12  13  14  15  26  29  33  34 0
 6-311+G(2d,p)
 ****
 36  38  39  40  41 0
 6-311+G(2d,p)
 ****
 1  2  3  4  5  16  17  18  19  20  21  22  23  24  25 0
 3-21G
 ****
 27  28  30  31  32  35  37  42  43  44  45  46  47 0
 3-21G
 ****
 48  49 0
 3-21G
 ****


