%nproc=1
%NoSave
%Mem=1900MB
#P OB98/GEN NMR

erre ene a

0 1
  C       46.745      19.460     378.202
  O       47.167      19.427     376.849
  P       48.184      18.300     376.328
  C       50.627      17.725     376.886
  O       49.610      18.720     376.927
  C       51.918      18.317     376.331
  O       52.349      19.382     377.215
  C       53.109      17.362     376.247
  O       53.141      16.562     375.078
  C       54.264      18.356     376.210
  O       54.393      18.902     374.884
  C       53.795      19.436     377.186
  N       57.371      20.884     380.549
  C       57.091      21.296     379.289
  N       56.134      20.849     378.454
  C       55.391      19.899     379.049
  C       55.552      19.381     380.323
  C       56.598      19.914     381.092
  N       56.868      19.509     382.382
  N       54.606      18.403     380.574
  C       53.886      18.347     379.475
  N       54.315      19.237     378.529
  O       48.141      18.063     374.858
  O       47.804      17.001     377.178
  H       53.653      19.527     374.761
  H       48.180      16.203     376.754
  H       57.726      22.090     378.906
  H       53.051      17.681     379.318
  H       54.077      20.447     376.865
  H       55.225      17.896     376.462
  H       53.194      16.747     377.152
  H       51.705      18.760     375.353
  H       50.288      16.918     376.227
  H       57.549      20.039     382.900
  H       56.194      18.907     382.842
  H       50.778      17.312     377.887
  P       54.218      15.369     375.035
  C       56.825      15.334     375.263
  O       55.655      16.083     375.029
  O       53.994      14.370     373.953
  O       54.118      14.748     376.508
  H       54.432      15.329     377.222
  H       57.692      15.963     375.056
  H       56.867      14.458     374.606
  H       56.863      15.012     376.308
  H       46.074      20.280     378.346
  H       47.597      19.580     378.838
  H       46.246      18.544     378.442

 3  4  5  6  7  8  9  10  11  12  22  25  29  30  31  32 0
 6-311+G(2d,p)
 ****
 33  36  37 0
 6-311+G(2d,p)
 ****
 1  2  13  14  15  16  17  18  19  20  21  23  24  26 0
 3-21G
 ****
 27  28  34  35  38  39  40  41  42  43  44  45  46  47  48 0
 3-21G
 ****


