%nproc=1
%NoSave
%Mem=1900MB
#P OB98/GEN NMR

erre ene a

0 1
  C      -23.782    -571.245    -178.607
  O      -24.745    -570.251    -178.333
  H      -23.832    -572.015    -177.838
  H      -22.776    -570.813    -178.600
  H      -23.980    -571.703    -179.585
  P      -24.746    -568.963    -179.295
  C      -26.770    -567.673    -180.329
  O      -26.256    -568.910    -179.849
  C      -28.059    -567.908    -181.110
  O      -27.773    -568.419    -182.430
  C      -29.004    -568.937    -180.481
  O      -29.735    -568.423    -179.377
  C      -29.897    -569.226    -181.673
  O      -30.805    -568.134    -181.880
  C      -28.850    -569.316    -182.811
  N      -28.348    -570.678    -183.022
  C      -28.971    -571.432    -184.024
  O      -29.902    -570.955    -184.682
  N      -28.549    -572.727    -184.232
  C      -27.574    -573.213    -183.528
  N      -27.205    -574.500    -183.780
  C      -26.881    -572.446    -182.472
  C      -27.306    -571.200    -182.269
  O      -23.921    -569.463    -180.582
  O      -24.248    -567.693    -178.698
  H      -31.348    -568.063    -181.073
  H      -23.987    -568.787    -181.301
  H      -26.091    -572.911    -181.903
  H      -26.839    -570.580    -181.521
  H      -29.264    -568.945    -183.759
  H      -30.503    -570.132    -181.547
  H      -28.473    -569.851    -180.198
  H      -28.553    -566.934    -181.236
  H      -27.740    -575.018    -184.462
  H      -26.008    -567.210    -180.982
  H      -26.567    -575.018    -183.188
  H      -26.971    -566.991    -179.495
  P      -30.900    -569.348    -178.776
  C      -32.513    -569.022    -176.761
  O      -31.227    -568.788    -177.312
  O      -30.155    -570.729    -178.481
  O      -32.090    -569.534    -179.675
  H      -30.745    -571.494    -178.623
  H      -32.568    -568.586    -175.785
  H      -32.685    -570.076    -176.691
  H      -33.257    -568.580    -177.391

 6  7  8  9  10  11  12  13  14  15  16  26  30  31  32  33  35 0
 6-311+G(2d,p)
 ****
 37  38 0
 6-311+G(2d,p)
 ****
 1  2  3  4  5  17  18  19  20  21  22  23  24  25 0
 3-21G
 ****
 27  28  29  34  36  39  40  41  42  43  44  45  46 0
 3-21G
 ****


