%nproc=1
%NoSave
%Mem=1900MB
#P OB98/GEN NMR

erre ene a

0 1
  C     -472.636    -862.503     -45.370
  O     -473.274    -861.301     -45.813
  P     -474.823    -861.010     -45.545
  C     -475.630    -861.954     -47.801
  O     -475.705    -862.060     -46.385
  C     -476.972    -862.290     -48.464
  O     -478.075    -861.867     -47.635
  C     -477.184    -861.640     -49.832
  O     -476.468    -862.335     -50.838
  C     -478.700    -861.699     -49.945
  O     -479.121    -863.004     -50.390
  C     -479.148    -861.457     -48.503
  N     -482.726    -857.858     -49.172
  C     -482.681    -859.155     -49.521
  N     -481.684    -860.057     -49.313
  C     -480.672    -859.487     -48.645
  C     -480.572    -858.161     -48.218
  C     -481.671    -857.325     -48.518
  N     -481.705    -855.994     -48.181
  N     -479.371    -857.940     -47.587
  C     -478.756    -859.106     -47.606
  N     -479.507    -860.069     -48.237
  O     -475.227    -859.579     -45.737
  O     -475.061    -861.455     -44.016
  H     -480.072    -862.955     -50.596
  H     -475.798    -860.938     -43.633
  H     -483.554    -859.546     -50.040
  H     -477.781    -859.300     -47.185
  H     -480.019    -862.068     -48.235
  H     -479.094    -860.970     -50.661
  H     -476.865    -860.592     -49.793
  H     -477.032    -863.387     -48.553
  H     -474.855    -862.651     -48.154
  H     -482.511    -855.457     -48.441
  H     -480.898    -855.576     -47.726
  H     -475.332    -860.936     -48.062
  P     -475.187    -861.675     -51.518
  C     -476.624    -860.229     -53.069
  O     -475.621    -860.237     -52.068
  O     -474.456    -862.538     -52.498
  O     -474.250    -861.307     -50.272
  H     -473.310    -861.335     -50.541
  H     -476.173    -860.467     -54.038
  H     -477.078    -859.233     -53.113
  H     -477.416    -860.961     -52.840
  H     -471.605    -862.486     -45.656
  H     -473.116    -863.348     -45.818
  H     -472.709    -862.574     -44.305

 3  4  5  6  7  8  9  10  11  12  22  25  29  30  31  32 0
 6-311+G(2d,p)
 ****
 33  36  37 0
 6-311+G(2d,p)
 ****
 1  2  13  14  15  16  17  18  19  20  21  23  24  26 0
 3-21G
 ****
 27  28  34  35  38  39  40  41  42  43  44  45  46  47  48 0
 3-21G
 ****


