%nproc=1
%NoSave
%Mem=1900MB
#P OB98/GEN NMR

erre ene a

0 1
  C     -342.833     265.476     454.358
  O     -342.939     266.112     453.079
  P     -343.470     267.629     453.078
  C     -345.125     267.172     451.117
  O     -344.038     267.952     451.601
  C     -344.747     266.534     449.779
  O     -343.706     265.546     449.922
  C     -345.906     265.795     449.119
  O     -346.837     266.704     448.547
  C     -345.147     264.928     448.105
  O     -344.800     265.714     446.947
  C     -343.881     264.552     448.888
  N     -341.897     259.843     448.846
  C     -341.599     260.942     448.126
  N     -342.175     262.162     448.194
  C     -343.152     262.179     449.133
  C     -343.550     261.139     449.950
  C     -342.877     259.914     449.772
  N     -343.177     258.780     450.512
  N     -344.566     261.533     450.787
  C     -344.794     262.791     450.466
  N     -343.946     263.231     449.481
  O     -342.125     268.492     453.161
  O     -344.409     267.937     454.197
  H     -344.048     265.262     446.500
  H     -342.050     268.895     454.042
  H     -340.806     260.832     447.391
  H     -345.549     263.423     450.919
  H     -342.992     264.580     448.253
  H     -345.743     264.072     447.756
  H     -346.415     265.151     449.848
  H     -344.382     267.328     449.105
  H     -346.015     267.789     450.993
  H     -342.702     257.922     450.267
  H     -343.966     258.800     451.138
  H     -345.355     266.406     451.862
  P     -348.397     266.480     448.862
  C     -349.268     266.698     446.458
  O     -349.145     267.337     447.720
  O     -348.591     267.384     450.164
  O     -348.812     265.048     448.999
  H     -348.162     268.265     450.069
  H     -349.822     267.370     445.792
  H     -349.824     265.763     446.555
  H     -348.282     266.504     446.035
  H     -342.472     264.477     454.231
  H     -343.796     265.450     454.824
  H     -342.153     266.026     454.974

 3  4  5  6  7  8  9  10  11  12  22  25  29  30  31  32 0
 6-311+G(2d,p)
 ****
 33  36  37 0
 6-311+G(2d,p)
 ****
 1  2  13  14  15  16  17  18  19  20  21  23  24  26 0
 3-21G
 ****
 27  28  34  35  38  39  40  41  42  43  44  45  46  47  48 0
 3-21G
 ****


