%nproc=1
%NoSave
%Mem=1900MB
#P OB98/GEN NMR

erre ene a

0 1
  C       33.173     156.066    -117.890
  O       33.678     156.300    -116.592
  H       33.142     154.994    -118.096
  H       32.156     156.465    -117.951
  H       33.795     156.570    -118.635
  P       35.156     155.755    -116.283
  C       35.993     153.590    -115.107
  O       34.955     154.225    -115.840
  C       35.775     152.081    -115.129
  O       34.559     151.745    -114.421
  C       35.613     151.503    -116.530
  O       36.855     151.277    -117.173
  C       34.908     150.195    -116.216
  O       35.856     149.242    -115.705
  C       33.935     150.626    -115.108
  N       29.365     149.015    -116.758
  C       30.434     148.349    -116.272
  N       31.605     148.853    -115.834
  C       31.610     150.192    -115.923
  C       30.594     151.008    -116.391
  C       29.423     150.366    -116.830
  N       28.344     151.038    -117.356
  N       30.977     152.334    -116.350
  C       32.195     152.316    -115.849
  N       32.634     151.043    -115.605
  O       35.549     156.477    -114.910
  O       36.166     155.959    -117.362
  H       36.164     149.580    -114.843
  H       36.507     156.394    -114.745
  H       30.337     147.268    -116.233
  H       32.802     153.192    -115.655
  H       33.762     149.836    -114.368
  H       34.442     149.745    -117.096
  H       34.954     152.124    -117.146
  H       36.610     151.605    -114.600
  H       35.972     153.951    -114.073
  H       27.617     150.483    -117.779
  H       28.434     152.024    -117.550
  H       36.959     153.838    -115.556
  P       36.871     151.289    -118.779
  C       37.041     149.381    -120.533
  O       36.585     149.780    -119.246
  O       38.420     151.494    -119.119
  O       36.010     152.338    -119.402
  H       38.530     152.000    -119.946
  H       36.780     148.357    -120.702
  H       38.104     149.491    -120.585
  H       36.582     149.995    -121.280

 6  7  8  9  10  11  12  13  14  15  25  28  32  33  34  35 0
 6-311+G(2d,p)
 ****
 36  39  40 0
 6-311+G(2d,p)
 ****
 1  2  3  4  5  16  17  18  19  20  21  22  23  24 0
 3-21G
 ****
 26  27  29  30  31  37  38  41  42  43  44  45  46  47 0
 3-21G
 ****
 48 0
 3-21G
 ****


