%nproc=1
%NoSave
%Mem=1900MB
#P OB98/GEN NMR

erre ene a

0 1
  C     -664.873     319.131     204.168
  O     -665.810     319.491     203.168
  H     -664.298     320.019     204.442
  H     -664.186     318.373     203.783
  H     -665.383     318.753     205.058
  P     -666.888     318.405     202.694
  C     -665.103     317.655     200.984
  O     -666.082     317.249     201.933
  C     -664.971     316.610     199.882
  O     -664.651     315.321     200.454
  C     -666.254     316.387     199.084
  O     -666.472     317.442     198.162
  C     -665.986     315.032     198.458
  O     -665.151     315.168     197.291
  C     -665.229     314.308     199.598
  N     -666.099     313.402     200.362
  C     -665.602     312.119     200.589
  O     -664.529     311.727     200.154
  N     -666.420     311.293     201.307
  C     -667.700     311.572     201.724
  O     -668.417     310.764     202.286
  C     -668.170     312.933     201.437
  C     -667.357     313.779     200.783
  O     -668.066     318.945     201.951
  O     -667.336     317.691     204.056
  H     -664.944     314.263     196.999
  H     -668.220     318.008     204.314
  H     -666.091     310.357     201.471
  H     -669.169     313.205     201.758
  H     -667.694     314.784     200.554
  H     -664.397     313.727     199.191
  H     -666.905     314.533     198.143
  H     -667.110     316.295     199.771
  H     -664.155     316.900     199.220
  H     -664.135     317.764     201.496
  H     -665.392     318.627     200.567
  P     -667.911     318.129     198.060
  C     -669.224     316.529     196.520
  O     -668.993     316.960     197.861
  O     -668.019     319.257     197.078
  O     -668.205     318.639     199.547
  H     -668.315     319.610     199.534
  H     -669.960     315.752     196.517
  H     -668.312     316.157     196.103
  H     -669.574     317.354     195.935

 6  7  8  9  10  11  12  13  14  15  16  26  31  32  33  34  35 0
 6-311+G(2d,p)
 ****
 36  37 0
 6-311+G(2d,p)
 ****
 1  2  3  4  5  17  18  19  20  21  22  23  24  25 0
 3-21G
 ****
 27  28  29  30  38  39  40  41  42  43  44  45 0
 3-21G
 ****


