%nproc=1
%NoSave
%Mem=1900MB
#P OB98/GEN NMR

erre ene a

0 1
  C      -49.931    -468.795    -267.610
  O      -50.499    -470.059    -267.878
  H      -48.849    -468.913    -267.500
  H      -50.334    -468.379    -266.684
  H      -50.122    -468.107    -268.441
  P      -52.090    -470.174    -268.018
  C      -54.116    -469.721    -266.483
  O      -52.718    -469.530    -266.688
  C      -54.378    -470.204    -265.052
  O      -53.836    -471.544    -264.930
  C      -53.702    -469.311    -263.997
  O      -54.602    -468.854    -262.991
  C      -52.507    -470.145    -263.549
  O      -52.055    -469.867    -262.240
  C      -52.987    -471.586    -263.766
  N      -51.902    -472.547    -263.954
  C      -51.911    -473.682    -263.146
  O      -52.767    -473.949    -262.308
  N      -50.868    -474.552    -263.344
  C      -49.844    -474.398    -264.229
  O      -48.944    -475.216    -264.364
  C      -49.880    -473.170    -265.037
  C      -50.891    -472.314    -264.865
  O      -52.615    -471.529    -268.366
  O      -52.459    -469.096    -269.144
  H      -51.934    -468.900    -262.165
  H      -52.627    -469.555    -269.989
  H      -50.871    -475.382    -262.768
  H      -49.080    -473.009    -265.745
  H      -50.949    -471.396    -265.446
  H      -53.588    -471.921    -262.922
  H      -51.671    -469.939    -264.227
  H      -53.338    -468.381    -264.449
  H      -55.461    -470.272    -264.893
  H      -54.464    -470.465    -267.204
  H      -54.647    -468.778    -266.659
  P      -54.923    -467.320    -262.690
  C      -53.622    -465.302    -261.626
  O      -53.665    -466.695    -261.916
  O      -56.271    -467.040    -262.116
  O      -54.855    -466.629    -264.146
  H      -55.506    -465.898    -264.138
  H      -52.713    -465.073    -261.110
  H      -54.457    -465.040    -261.011
  H      -53.663    -464.746    -262.539

 6  7  8  9  10  11  12  13  14  15  16  26  31  32  33  34  35 0
 6-311+G(2d,p)
 ****
 36  37 0
 6-311+G(2d,p)
 ****
 1  2  3  4  5  17  18  19  20  21  22  23  24  25 0
 3-21G
 ****
 27  28  29  30  38  39  40  41  42  43  44  45 0
 3-21G
 ****


