%nproc=1
%NoSave
%Mem=1900MB
#P OB98/GEN NMR

erre ene a

0 1
  C      -70.239      -2.980    1277.528
  O      -70.616      -4.182    1278.176
  H      -69.181      -2.781    1277.739
  H      -70.835      -2.145    1277.901
  H      -70.362      -3.075    1276.446
  P      -72.070      -4.787    1277.898
  C      -73.501      -2.967    1279.032
  O      -73.012      -4.303    1279.099
  C      -73.737      -2.434    1280.446
  O      -74.807      -3.169    1281.087
  C      -72.528      -2.565    1281.368
  O      -71.548      -1.583    1281.091
  C      -73.188      -2.436    1282.732
  O      -73.424      -1.053    1283.051
  C      -74.522      -3.184    1282.509
  N      -74.500      -4.548    1283.025
  C      -75.242      -4.783    1284.195
  O      -75.837      -3.892    1284.796
  N      -75.212      -6.072    1284.671
  C      -74.466      -7.092    1284.167
  O      -74.407      -8.200    1284.685
  C      -73.690      -6.788    1282.951
  C      -73.747      -5.552    1282.441
  O      -72.118      -6.253    1277.610
  O      -72.603      -3.930    1276.653
  H      -73.973      -1.045    1283.861
  H      -72.557      -4.470    1275.839
  H      -75.724      -6.256    1285.516
  H      -73.090      -7.578    1282.519
  H      -73.174      -5.305    1281.554
  H      -75.342      -2.649    1282.999
  H      -72.571      -2.852    1283.528
  H      -72.098      -3.575    1281.280
  H      -74.050      -1.376    1280.367
  H      -74.445      -2.961    1278.482
  H      -72.771      -2.348    1278.503
  P      -70.001      -1.989    1281.032
  C      -69.805      -2.986    1283.386
  O      -69.435      -1.927    1282.528
  O      -69.186      -1.278    1279.999
  O      -70.034      -3.566    1280.735
  H      -69.576      -3.745    1279.890
  H      -69.368      -2.833    1284.351
  H      -69.457      -3.913    1282.980
  H      -70.871      -3.015    1283.478

 6  7  8  9  10  11  12  13  14  15  16  26  31  32  33  34  35 0
 6-311+G(2d,p)
 ****
 36  37 0
 6-311+G(2d,p)
 ****
 1  2  3  4  5  17  18  19  20  21  22  23  24  25 0
 3-21G
 ****
 27  28  29  30  38  39  40  41  42  43  44  45 0
 3-21G
 ****


