%nproc=1
%NoSave
%Mem=1900MB
#P OB98/GEN NMR

erre ene a

0 1
  C       97.480     574.077     -33.734
  O       97.981     572.822     -34.209
  P       96.886     571.799     -34.801
  C       98.154     570.889     -36.877
  O       97.101     571.711     -36.393
  C       98.391     571.092     -38.377
  O       97.330     570.446     -39.120
  C       98.426     572.556     -38.828
  O       99.411     572.696     -39.863
  C       97.066     572.761     -39.467
  O       97.061     573.844     -40.389
  C       96.845     571.386     -40.091
  N       93.609     570.259     -43.812
  C       94.987     570.332     -43.830
  N       95.586     570.093     -45.020
  N       95.716     570.613     -42.783
  C       94.986     570.795     -41.660
  C       93.620     570.741     -41.504
  C       92.823     570.470     -42.682
  O       91.598     570.442     -42.739
  N       93.249     570.985     -40.204
  C       94.389     571.194     -39.573
  N       95.470     571.099     -40.416
  O       95.513     572.604     -34.639
  O       96.841     570.491     -34.090
  H       96.197     573.835     -40.839
  H       94.880     572.080     -34.114
  H       93.095     570.058     -44.650
  H       94.485     571.440     -38.528
  H       97.440     571.263     -41.005
  H       96.326     572.973     -38.687
  H       95.090     569.809     -45.848
  H       98.625     573.273     -38.023
  H       96.597     570.097     -45.045
  H       99.329     570.592     -38.645
  H       97.906     569.839     -36.695
  H       99.063     571.120     -36.315
  P      100.902     573.052     -39.390
  C      102.060     570.763     -38.965
  O      101.351     571.858     -38.420
  O      100.688     574.287     -38.393
  O      101.835     573.378     -40.503
  H      101.486     574.847     -38.373
  H      102.399     570.956     -39.987
  H      101.411     569.881     -38.970
  H      102.932     570.557     -38.337
  H       98.292     574.669     -33.367
  H       96.778     573.905     -32.945
  H       96.995     574.594     -34.536

 3  4  5  6  7  8  9  10  11  12  23  26  30  31  33  0
 6-311+G(2d,p)
 ****
 35  36  37  38 0
 6-311+G(2d,p)
 ****
 1  2  13  14  15  16  17  18  19  20  21  22  24  25  27  28  29 0
 3-21G
 ****
 32  34  39  40  41  42  43  44  45  46  47  48  49 0
 3-21G
 ****


