%nproc=1
%NoSave
%Mem=1900MB
#P OB98/GEN NMR

erre ene a

0 1
  C      184.503    -570.712     -52.129
  O      185.102    -571.865     -52.734
  P      184.171    -572.776     -53.674
  C      183.932    -574.275     -51.534
  O      183.309    -573.687     -52.672
  C      182.918    -574.416     -50.403
  O      181.746    -575.141     -50.847
  C      183.436    -575.189     -49.196
  O      184.337    -574.405     -48.430
  C      182.132    -575.534     -48.491
  O      181.659    -574.411     -47.728
  C      181.182    -575.793     -49.685
  N      180.938    -577.205     -49.928
  C      180.046    -577.828     -49.058
  O      179.500    -577.240     -48.120
  N      179.808    -579.151     -49.290
  C      180.390    -579.914     -50.263
  O      180.132    -581.093     -50.432
  C      181.362    -579.215     -51.120
  C      181.591    -577.914     -50.919
  O      185.243    -573.773     -54.302
  O      183.386    -571.977     -54.662
  H      185.956    -574.006     -53.680
  H      182.197    -574.384     -46.915
  H      179.155    -579.620     -48.678
  H      181.860    -579.790     -51.888
  H      182.306    -577.385     -51.534
  H      180.213    -575.304     -49.508
  H      182.237    -576.378     -47.802
  H      183.932    -576.106     -49.528
  H      182.601    -573.408     -50.099
  H      184.762    -573.644     -51.198
  H      184.345    -575.245     -51.822
  P      185.876    -574.405     -48.900
  C      186.645    -576.329     -47.305
  O      186.435    -575.881     -48.626
  O      186.551    -573.514     -47.755
  O      186.080    -573.887     -50.288
  H      186.241    -573.747     -46.862
  H      186.681    -577.422     -47.306
  H      185.840    -576.007     -46.638
  H      187.600    -575.943     -46.935
  H      185.232    -570.202     -51.534
  H      183.687    -571.018     -51.508
  H      184.143    -570.055     -52.893

 3  4  5  6  7  8  9  10  11  12  13  24  28  29  30  31  32 0
 6-311+G(2d,p)
 ****
 33  34 0
 6-311+G(2d,p)
 ****
 1  2  14  15  16  17  18  19  20  21  22  23  25  26  27 0
 3-21G
 ****
 35  36  37  38  39  40  41  42  43  44  45 0
 3-21G
 ****


