%nproc=1
%NoSave
%Mem=1900MB
#P OB98/GEN NMR

erre ene a

0 1
  C       96.076      39.644      -9.441
  O       94.748      39.185      -9.709
  P       94.290      37.832      -8.967
  C       94.637      35.285      -9.374
  O       94.741      36.603      -9.895
  C       95.178      34.264     -10.373
  O       94.340      34.187     -11.540
  C       96.568      34.586     -10.903
  O       97.581      34.214      -9.981
  C       96.621      33.706     -12.144
  O       96.983      32.363     -11.778
  C       95.168      33.753     -12.646
  N       96.034      34.594     -17.568
  C       96.398      33.524     -16.776
  N       97.065      32.522     -17.390
  N       96.133      33.441     -15.499
  C       95.435      34.502     -15.027
  C       95.018      35.621     -15.709
  C       95.346      35.714     -17.117
  O       95.076      36.654     -17.856
  N       94.328      36.479     -14.894
  C       94.300      35.868     -13.726
  N       94.973      34.670     -13.752
  O       92.698      37.854      -9.134
  O       94.703      37.755      -7.537
  H       97.846      32.414     -11.321
  H       92.279      37.355      -8.407
  H       96.271      34.609     -18.545
  H       93.809      36.245     -12.838
  H       94.810      32.764     -12.952
  H       97.362      34.046     -12.873
  H       97.238      32.487     -18.382
  H       96.643      35.641     -11.192
  H       97.308      31.712     -16.832
  H       95.184      33.280      -9.883
  H       93.592      35.056      -9.151
  H       95.182      35.233      -8.426
  P       98.621      35.354      -9.538
  C      100.405      36.729     -10.824
  O       99.560      35.597     -10.812
  O       99.569      34.594      -8.496
  O       97.992      36.567      -8.941
  H       99.928      35.225      -7.844
  H      100.892      36.870      -9.855
  H       99.823      37.621     -11.076
  H      101.176      36.584     -11.585
  H       96.259      40.545      -9.989
  H       96.779      38.895      -9.740
  H       96.183      39.836      -8.394

 3  4  5  6  7  8  9  10  11  12  23  26  30  31  33  0
 6-311+G(2d,p)
 ****
 35  36  37  38 0
 6-311+G(2d,p)
 ****
 1  2  13  14  15  16  17  18  19  20  21  22  24  25  27  28  29 0
 3-21G
 ****
 32  34  39  40  41  42  43  44  45  46  47  48  49 0
 3-21G
 ****


