%nproc=1
%NoSave
%Mem=1900MB
#P OB98/GEN NMR

erre ene a

0 1
  C       56.053     447.275    -233.243
  O       54.996     447.193    -234.174
  H       56.930     446.775    -233.664
  H       55.783     446.776    -232.309
  H       56.310     448.321    -233.045
  P       53.567     447.795    -233.770
  C       54.009     449.879    -235.226
  O       53.672     449.389    -233.934
  C       54.696     451.245    -235.110
  O       56.067     451.013    -234.705
  C       54.709     452.013    -236.441
  O       54.183     453.332    -236.331
  C       56.150     451.864    -236.915
  O       56.600     452.898    -237.769
  C       56.934     451.728    -235.606
  N       58.213     451.035    -235.752
  C       59.229     451.701    -236.429
  O       59.142     452.835    -236.896
  N       60.406     451.010    -236.559
  C       60.654     449.752    -236.098
  O       61.732     449.186    -236.239
  C       59.536     449.091    -235.411
  C       58.384     449.752    -235.272
  O       53.019     447.336    -232.461
  O       52.612     447.373    -234.985
  H       57.513     452.681    -238.042
  H       52.062     446.613    -234.719
  H       61.152     451.488    -237.040
  H       59.693     448.087    -235.041
  H       57.537     449.294    -234.766
  H       57.136     452.708    -235.179
  H       56.229     450.926    -237.481
  H       54.044     451.536    -237.171
  H       54.208     451.820    -234.316
  H       53.083     449.968    -235.805
  H       54.677     449.170    -235.727
  P       52.627     453.692    -236.333
  C       52.715     454.818    -233.968
  O       52.144     453.832    -234.816
  O       51.776     452.869    -237.242
  O       52.601     455.209    -236.884
  H       51.768     455.305    -237.389
  H       52.267     454.757    -232.998
  H       52.540     455.789    -234.382
  H       53.769     454.651    -233.885

 6  7  8  9  10  11  12  13  14  15  16  26  31  32  33  34  35 0
 6-311+G(2d,p)
 ****
 36  37 0
 6-311+G(2d,p)
 ****
 1  2  3  4  5  17  18  19  20  21  22  23  24  25 0
 3-21G
 ****
 27  28  29  30  38  39  40  41  42  43  44  45 0
 3-21G
 ****


