%nproc=1
%NoSave
%Mem=1900MB
#P OB98/GEN NMR

erre ene a

0 1
  C     -199.575     -24.445     121.216
  O     -198.273     -24.528     120.673
  H     -200.287     -24.304     120.400
  H     -199.647     -23.591     121.894
  H     -199.834     -25.364     121.749
  P     -197.059     -24.938     121.635
  C     -196.537     -24.556     124.131
  O     -197.222     -24.081     122.979
  C     -197.055     -23.843     125.376
  O     -198.497     -23.894     125.416
  C     -196.583     -24.459     126.688
  O     -195.236     -24.115     126.951
  C     -197.597     -23.872     127.658
  O     -197.246     -22.525     128.012
  C     -198.889     -23.901     126.807
  N     -199.748     -25.046     127.104
  C     -200.998     -24.759     127.642
  O     -201.372     -23.617     127.900
  N     -201.804     -25.839     127.890
  C     -201.455     -27.150     127.737
  O     -202.197     -28.084     128.025
  C     -200.110     -27.394     127.197
  C     -199.331     -26.348     126.909
  O     -195.699     -24.889     121.022
  O     -197.438     -26.421     122.107
  H     -197.251     -22.009     127.182
  H     -196.930     -27.071     121.588
  H     -202.709     -25.652     128.292
  H     -199.797     -28.421     127.067
  H     -198.333     -26.510     126.516
  H     -199.472     -22.986     126.971
  H     -197.663     -24.435     128.589
  H     -196.711     -25.547     126.663
  H     -196.759     -22.787     125.313
  H     -195.467     -24.351     124.012
  H     -196.687     -25.637     124.211
  P     -194.171     -25.235     127.363
  C     -193.806     -26.883     129.290
  O     -194.632     -25.846     128.775
  O     -192.743     -24.808     127.307
  O     -194.456     -26.434     126.341
  H     -193.746     -26.473     125.670
  H     -194.198     -27.219     130.227
  H     -192.813     -26.511     129.431
  H     -193.786     -27.700     128.599

 6  7  8  9  10  11  12  13  14  15  16  26  31  32  33  34  35 0
 6-311+G(2d,p)
 ****
 36  37 0
 6-311+G(2d,p)
 ****
 1  2  3  4  5  17  18  19  20  21  22  23  24  25 0
 3-21G
 ****
 27  28  29  30  38  39  40  41  42  43  44  45 0
 3-21G
 ****


