%nproc=1
%NoSave
%Mem=1900MB
#P OB98/GEN NMR

erre ene a

0 1
  C      197.077     -54.947      19.437
  O      197.574     -55.375      20.693
  P      196.793     -56.477      21.550
  C      195.897     -54.835      23.300
  O      195.554     -55.748      22.264
  C      195.031     -55.054      24.542
  O      193.634     -54.871      24.179
  C      195.158     -56.443      25.179
  O      195.001     -56.268      26.595
  C      193.954     -57.184      24.621
  O      193.587     -58.313      25.404
  C      192.928     -56.058      24.608
  N      188.089     -57.683      24.276
  C      188.934     -57.585      25.326
  N      190.217     -57.169      25.329
  C      190.607     -56.826      24.088
  C      189.869     -56.904      22.916
  C      188.542     -57.341      23.044
  N      187.652     -57.412      21.992
  N      190.642     -56.515      21.835
  C      191.818     -56.216      22.344
  N      191.823     -56.325      23.708
  O      197.643     -57.295      22.465
  O      196.084     -57.398      20.444
  H      193.703     -58.084      26.347
  H      196.552     -58.253      20.378
  H      188.527     -57.874      26.291
  H      192.691     -55.919      21.780
  H      192.512     -55.864      25.604
  H      194.177     -57.534      23.604
  H      196.105     -56.947      24.955
  H      195.279     -54.272      25.271
  H      195.739     -53.819      22.923
  H      186.688     -57.611      22.215
  H      187.872     -56.921      21.128
  H      196.957     -54.950      23.557
  P      196.143     -56.778      27.596
  C      194.501     -58.449      28.634
  O      195.757     -58.282      27.999
  O      196.441     -55.866      28.740
  O      197.417     -56.972      26.645
  H      198.228     -57.010      27.186
  H      194.595     -58.199      29.692
  H      194.193     -59.492      28.542
  H      193.741     -57.812      28.176
  H      197.736     -54.212      19.024
  H      196.103     -54.522      19.565
  H      197.016     -55.784      18.773

 3  4  5  6  7  8  9  10  11  12  22  25  29  30  31  32 0
 6-311+G(2d,p)
 ****
 33  36  37 0
 6-311+G(2d,p)
 ****
 1  2  13  14  15  16  17  18  19  20  21  23  24  26 0
 3-21G
 ****
 27  28  34  35  38  39  40  41  42  43  44  45  46  47  48 0
 3-21G
 ****


