%nproc=1
%NoSave
%Mem=1900MB
#P OB98/GEN NMR

erre ene a

0 1
  C     -123.390    -115.506    -224.717
  O     -124.555    -116.182    -225.135
  H     -123.643    -114.852    -223.878
  H     -123.001    -114.891    -225.535
  H     -122.623    -116.214    -224.389
  P     -124.427    -117.344    -226.232
  C     -125.550    -119.245    -224.896
  O     -125.654    -118.346    -225.991
  C     -126.925    -119.811    -224.528
  O     -127.639    -118.821    -223.721
  C     -127.826    -120.134    -225.740
  O     -128.675    -121.225    -225.357
  C     -128.611    -118.841    -225.868
  O     -129.702    -118.954    -226.741
  C     -128.898    -118.576    -224.383
  N     -129.396    -117.239    -224.070
  C     -130.772    -117.076    -223.939
  O     -131.600    -117.976    -224.065
  N     -131.193    -115.802    -223.655
  C     -130.394    -114.712    -223.478
  O     -130.826    -113.603    -223.191
  C     -128.951    -114.943    -223.638
  C     -128.524    -116.180    -223.913
  O     -123.088    -117.991    -226.334
  O     -124.835    -116.612    -227.601
  H     -124.029    -116.399    -228.109
  H     -129.366    -119.091    -227.656
  H     -132.185    -115.665    -223.549
  H     -128.290    -114.098    -223.516
  H     -127.465    -116.387    -224.029
  H     -129.609    -119.316    -224.006
  H     -127.974    -118.053    -226.288
  H     -127.254    -120.409    -226.633
  H     -126.790    -120.697    -223.894
  H     -125.138    -118.697    -224.039
  H     -124.867    -120.061    -225.159
  P     -129.671    -121.968    -226.371
  C     -128.644    -124.325    -226.059
  O     -129.798    -123.502    -225.912
  O     -129.306    -121.804    -227.812
  O     -131.121    -121.356    -226.069
  H     -131.677    -121.420    -226.866
  H     -128.866    -125.315    -225.718
  H     -127.841    -123.920    -225.480
  H     -128.359    -124.359    -227.090

 6  7  8  9  10  11  12  13  14  15  16  27  31  32  33  34  35 0
 6-311+G(2d,p)
 ****
 36  37 0
 6-311+G(2d,p)
 ****
 1  2  3  4  5  17  18  19  20  21  22  23  24  25 0
 3-21G
 ****
 26  28  29  30  38  39  40  41  42  43  44  45 0
 3-21G
 ****


