%nproc=1
%NoSave
%Mem=1900MB
#P OB98/GEN NMR

erre ene a

0 1
  C     -398.086    -721.091     121.482
  O     -398.608    -722.423     121.345
  P     -399.141    -722.893     119.896
  C     -397.871    -725.168     119.632
  O     -399.124    -724.496     119.834
  C     -397.978    -726.612     120.114
  O     -397.843    -726.687     121.548
  C     -399.334    -727.274     119.825
  O     -399.425    -727.683     118.459
  C     -399.309    -728.447     120.796
  O     -398.557    -729.564     120.246
  C     -398.574    -727.860     122.018
  N     -399.480    -727.526     123.109
  C     -399.299    -728.224     124.294
  O     -398.460    -729.134     124.427
  N     -400.144    -727.884     125.320
  C     -401.160    -726.988     125.279
  O     -401.880    -726.730     126.224
  C     -401.352    -726.334     123.973
  C     -400.535    -726.628     122.971
  O     -397.923    -722.497     118.942
  O     -400.414    -722.237     119.418
  H     -397.671    -729.206     120.014
  H     -398.251    -722.308     118.024
  H     -400.009    -728.363     126.212
  H     -402.171    -725.629     123.879
  H     -400.669    -726.171     121.988
  H     -397.822    -728.542     122.388
  H     -400.313    -728.832     121.030
  H     -400.158    -726.594     120.099
  H     -397.166    -727.191     119.676
  H     -397.103    -724.662     120.207
  H     -397.625    -725.142     118.577
  P     -400.880    -728.209     117.972
  C     -401.110    -726.476     116.026
  O     -400.965    -727.820     116.432
  O     -401.853    -727.172     118.723
  O     -401.105    -729.642     118.333
  H     -401.462    -726.284     118.787
  H     -400.589    -725.814     116.702
  H     -402.162    -726.227     115.972
  H     -400.695    -726.370     115.015
  H     -397.776    -720.932     122.494
  H     -398.846    -720.382     121.226
  H     -397.248    -720.967     120.828

 3  4  5  6  7  8  9  10  11  12  13  23  28  29  30  31  32 0
 6-311+G(2d,p)
 ****
 33  34 0
 6-311+G(2d,p)
 ****
 1  2  14  15  16  17  18  19  20  21  22  24  25  26 0
 3-21G
 ****
 27  35  36  37  38  39  40  41  42  43  44  45 0
 3-21G
 ****


