%nproc=1
%NoSave
%Mem=1900MB
#P OB98/GEN NMR

erre ene a

0 1
  C     -892.490    -780.158    -144.086
  O     -892.660    -779.174    -145.090
  H     -891.650    -779.863    -143.444
  H     -892.260    -781.121    -144.547
  H     -893.390    -780.237    -143.465
  P     -893.970    -779.273    -146.002
  C     -892.610    -779.514    -148.205
  O     -893.560    -778.763    -147.457
  C     -892.690    -779.136    -149.688
  O     -894.010    -779.517    -150.173
  C     -892.490    -777.642    -149.962
  O     -891.800    -777.513    -151.206
  C     -893.920    -777.142    -150.158
  O     -894.020    -775.955    -150.923
  C     -894.570    -778.364    -150.839
  N     -896.030    -778.348    -150.744
  C     -896.740    -777.716    -151.762
  O     -896.220    -777.250    -152.778
  N     -898.090    -777.637    -151.584
  C     -898.790    -778.096    -150.501
  O     -900.000    -777.975    -150.391
  C     -897.980    -778.740    -149.445
  C     -896.660    -778.831    -149.621
  O     -894.900    -778.089    -145.429
  O     -894.660    -780.603    -145.985
  H     -895.470    -778.412    -144.702
  H     -893.750    -776.154    -151.832
  H     -898.610    -777.178    -152.314
  H     -898.510    -779.105    -148.574
  H     -896.040    -779.290    -148.845
  H     -894.260    -778.408    -151.888
  H     -894.380    -776.959    -149.176
  H     -891.970    -777.116    -149.181
  H     -891.960    -779.752    -150.236
  H     -892.840    -780.583    -148.088
  H     -891.610    -779.305    -147.813
  P     -890.190    -777.628    -151.155
  C     -890.140    -775.046    -151.643
  O     -889.630    -776.348    -151.953
  O     -889.950    -778.846    -152.147
  O     -889.660    -777.798    -149.780
  H     -890.560    -778.884    -152.892
  H     -889.661    -774.318    -152.264
  H     -889.945    -774.822    -150.615
  H     -891.195    -775.025    -151.819

 6  7  8  9  10  11  12  13  14  15  16  27  31  32  33  34  35 0
 6-311+G(2d,p)
 ****
 36  37 0
 6-311+G(2d,p)
 ****
 1  2  3  4  5  17  18  19  20  21  22  23  24  25 0
 3-21G
 ****
 26  28  29  30  38  39  40  41  42  43  44  45 0
 3-21G
 ****


