%nproc=1
%NoSave
%Mem=1900MB
#P OB98/GEN NMR

erre ene a

0 1
  C     -379.204     797.504    -899.250
  O     -378.668     797.268    -897.960
  H     -378.407     797.496    -900.000
  H     -379.911     796.709    -899.490
  H     -379.719     798.467    -899.280
  P     -377.595     798.330    -897.410
  C     -375.809     796.509    -897.910
  O     -376.287     797.475    -897.000
  C     -374.660     795.730    -897.270
  O     -373.504     796.590    -897.050
  C     -375.010     795.143    -895.880
  O     -375.727     793.939    -895.980
  C     -373.595     794.907    -895.340
  O     -373.040     793.706    -895.920
  C     -372.844     796.159    -895.840
  N     -370.740     797.930    -891.520
  C     -370.579     796.791    -892.220
  N     -371.172     796.380    -893.350
  C     -372.045     797.305    -893.770
  C     -372.361     798.512    -893.180
  C     -371.645     798.826    -891.980
  N     -371.839     799.994    -891.270
  N     -373.321     799.187    -893.880
  C     -373.580     798.409    -894.920
  N     -372.843     797.250    -894.870
  O     -378.205     798.773    -896.000
  O     -377.324     799.498    -898.310
  H     -372.905     793.890    -896.870
  H     -377.815     799.641    -895.730
  H     -369.823     796.093    -891.780
  H     -374.307     798.632    -895.700
  H     -371.789     795.951    -896.100
  H     -373.584     794.771    -894.260
  H     -375.521     795.883    -895.250
  H     -374.375     794.911    -897.950
  H     -375.432     797.013    -898.820
  H     -371.434     800.032    -890.350
  H     -372.624     800.565    -891.540
  H     -376.627     795.836    -898.190
  P     -377.148     793.872    -895.240
  C     -376.128     793.556    -892.870
  O     -376.938     792.995    -893.910
  O     -378.025     792.903    -896.200
  O     -377.828     795.214    -895.050
  H     -378.985     793.096    -896.120
  H     -376.074     792.870    -892.051
  H     -376.562     794.476    -892.537
  H     -375.143     793.741    -893.245

 6  7  8  9  10  11  12  13  14  15  25  28  32  33  34  35 0
 6-311+G(2d,p)
 ****
 36  39  40 0
 6-311+G(2d,p)
 ****
 1  2  3  4  5  16  17  18  19  20  21  22  23  24 0
 3-21G
 ****
 26  27  29  30  31  37  38  41  42  43  44  45  46  47 0
 3-21G
 ****
 48 0
 3-21G
 ****


