%nproc=1
%NoSave
%Mem=1900MB
#P OB98/GEN NMR

erre ene a

0 1
  C       17.943     -68.303       5.953
  O       17.664     -68.866       7.219
  H       17.404     -68.846       5.172
  H       17.611     -67.262       5.951
  H       19.018     -68.331       5.754
  P       18.107     -70.393       7.438
  C       15.831     -71.481       6.833
  O       17.184     -71.269       6.461
  C       15.087     -72.211       5.719
  O       15.064     -71.402       4.525
  C       15.708     -73.540       5.302
  O       15.363     -74.586       6.198
  C       15.063     -73.739       3.939
  O       13.721     -74.233       4.104
  C       15.032     -72.305       3.388
  N       16.918     -72.826      -1.339
  C       15.733     -73.180      -0.796
  N       15.295     -72.989       0.465
  C       16.219     -72.342       1.193
  C       17.462     -71.897       0.776
  C       17.811     -72.168      -0.558
  N       19.056     -71.860      -1.083
  N       18.138     -71.287       1.814
  C       17.323     -71.380       2.844
  N       16.150     -72.003       2.516
  O       17.536     -70.721       8.900
  O       19.573     -70.649       7.346
  H       13.784     -75.041       4.646
  H       18.252     -70.616       9.554
  H       15.046     -73.688      -1.464
  H       17.541     -71.018       3.839
  H       14.110     -72.095       2.834
  H       15.597     -74.457       3.312
  H       16.793     -73.456       5.176
  H       14.048     -72.351       6.043
  H       15.347     -70.516       7.018
  H       19.347     -72.485      -1.829
  H       19.754     -71.620      -0.389
  H       15.809     -72.072       7.754
  P       16.513     -75.629       6.604
  C       15.389     -77.305       4.987
  O       16.602     -76.697       5.409
  O       15.840     -76.451       7.801
  O       17.805     -75.020       7.026
  H       16.407     -76.402       8.594
  H       15.592     -77.990       4.191
  H       14.712     -76.550       4.645
  H       14.950     -77.832       5.808

 6  7  8  9  10  11  12  13  14  15  25  28  32  33  34  35 0
 6-311+G(2d,p)
 ****
 36  39  40 0
 6-311+G(2d,p)
 ****
 1  2  3  4  5  16  17  18  19  20  21  22  23  24 0
 3-21G
 ****
 26  27  29  30  31  37  38  41  42  43  44  45  46  47  48 0
 3-21G
 ****


