%nproc=1
%NoSave
%Mem=1900MB
#P OB98/GEN NMR

erre ene a

0 1
  C      224.100     145.436      47.071
  O      225.287     146.226      46.982
  P      226.671     145.484      47.327
  C      226.964     146.452      49.708
  O      226.771     145.293      48.913
  C      227.337     146.104      51.155
  O      227.773     147.284      51.880
  C      226.168     145.505      51.951
  O      226.733     144.549      52.866
  C      225.641     146.676      52.738
  O      224.884     146.253      53.872
  C      226.946     147.422      53.056
  N      226.737     148.827      53.405
  C      226.730     149.147      54.770
  O      226.823     148.252      55.617
  N      226.577     150.459      55.145
  C      226.396     151.369      54.241
  N      226.245     152.654      54.676
  C      226.336     151.072      52.799
  C      226.521     149.795      52.459
  O      227.779     146.597      47.001
  O      226.897     144.242      46.517
  H      224.575     147.061      54.345
  H      228.473     146.219      46.430
  H      226.158     151.866      52.077
  H      226.497     149.481      51.426
  H      227.473     146.943      53.890
  H      224.988     147.300      52.098
  H      225.421     145.007      51.321
  H      228.173     145.400      51.132
  H      226.301     152.821      55.676
  H      226.049     147.055      49.708
  H      226.096     153.439      54.061
  H      227.743     147.076      49.246
  P      226.791     143.009      52.425
  C      224.431     142.568      53.352
  O      225.258     142.587      52.201
  O      227.116     142.285      53.822
  O      227.765     142.611      51.367
  H      227.255     141.334      53.681
  H      223.403     142.389      53.043
  H      224.481     143.529      53.869
  H      224.749     141.765      54.023
  H      223.252     146.038      46.820
  H      223.992     145.066      48.069
  H      224.168     144.613      46.391

 3  4  5  6  7  8  9  10  11  12  13  21  23  27  28  29  30  32 0
 6-311+G(2d,p)
 ****
 34  35 0
 6-311+G(2d,p)
 ****
 1  2  14  15  16  17  18  19  20  22  24  25  26 0
 3-21G
 ****
 31  33  36  37  38  39  40  41  42  43  44  45  46 0
 3-21G
 ****


