%nproc=1
%NoSave
%Mem=1900MB
#P OB98/GEN NMR

erre ene a

0 1
  C      452.900    -805.092     339.031
  O      453.445    -804.789     340.301
  P      455.037    -804.707     340.487
  C      455.150    -802.150     340.173
  O      455.555    -803.420     339.666
  C      456.375    -801.358     340.625
  O      457.290    -801.173     339.522
  C      456.054    -799.954     341.112
  O      455.513    -799.987     342.416
  C      457.422    -799.278     341.007
  O      458.230    -799.591     342.157
  C      457.998    -799.931     339.742
  N      459.614    -795.624     337.568
  C      459.785    -796.104     338.818
  N      459.287    -797.254     339.334
  C      458.528    -797.893     338.424
  C      458.245    -797.492     337.124
  C      458.847    -796.306     336.685
  N      458.737    -795.809     335.402
  N      457.400    -798.394     336.508
  C      457.189    -799.321     337.425
  N      457.888    -799.090     338.567
  O      455.782    -805.969     340.210
  O      455.228    -804.256     342.009
  H      458.124    -800.557     342.330
  H      455.727    -804.943     342.496
  H      460.391    -795.514     339.484
  H      456.524    -800.190     337.295
  H      459.054    -800.195     339.866
  H      457.350    -798.194     340.957
  H      455.359    -799.459     340.417
  H      456.901    -801.926     341.402
  H      454.488    -802.319     341.028
  H      459.328    -795.029     335.162
  H      458.429    -796.448     334.673
  H      454.598    -801.598     339.402
  P      454.331    -798.986     342.821
  C      452.388    -800.654     342.753
  O      452.987    -799.528     342.131
  O      454.613    -797.538     342.599
  O      454.092    -799.291     344.371
  H      453.804    -798.462     344.826
  H      452.943    -801.554     342.483
  H      451.363    -800.742     342.400
  H      452.384    -800.547     343.839
  H      451.832    -805.104     339.095
  H      453.249    -806.052     338.713
  H      453.207    -804.349     338.325

 3  4  5  6  7  8  9  10  11  12  22  25  29  30  31  32 0
 6-311+G(2d,p)
 ****
 33  36  37 0
 6-311+G(2d,p)
 ****
 1  2  13  14  15  16  17  18  19  20  21  23  24  26 0
 3-21G
 ****
 27  28  34  35  38  39  40  41  42  43  44  45  46  47  48 0
 3-21G
 ****


