%nproc=1
%NoSave
%Mem=1900MB
#P OB98/GEN NMR

erre ene a

0 1
  C       70.630     202.121     -52.463
  O       70.083     202.833     -51.352
  P       70.373     204.411     -51.307
  C       67.929     205.270     -51.439
  O       69.186     205.154     -52.089
  C       67.495     206.735     -51.357
  O       68.529     207.585     -50.828
  C       67.117     207.328     -52.707
  O       65.806     206.928     -53.065
  C       67.233     208.822     -52.433
  O       66.031     209.338     -51.827
  C       68.407     208.893     -51.443
  N       71.055     212.667     -53.549
  C       69.718     212.608     -53.206
  N       68.990     213.720     -53.432
  N       69.149     211.552     -52.684
  C       69.999     210.513     -52.512
  C       71.345     210.461     -52.786
  C       71.964     211.635     -53.366
  O       73.146     211.743     -53.666
  N       71.887     209.255     -52.418
  C       70.842     208.540     -52.041
  N       69.684     209.277     -52.017
  O       71.639     204.580     -52.273
  O       70.656     204.925     -49.935
  H       65.260     209.024     -52.332
  H       72.428     204.808     -51.746
  H       71.439     213.502     -53.955
  H       70.875     207.501     -51.752
  H       68.209     209.609     -50.636
  H       67.383     209.393     -53.353
  H       69.364     214.569     -53.828
  H       67.847     207.028     -53.469
  H       68.009     213.700     -53.180
  H       66.635     206.784     -50.677
  H       67.986     204.846     -50.435
  H       67.192     204.675     -51.989
  P       65.648     205.792     -54.184
  C       64.365     204.359     -52.443
  O       65.376     204.408     -53.430
  O       67.138     205.636     -54.754
  O       64.688     206.128     -55.276
  H       67.111     205.585     -55.728
  H       63.951     203.349     -52.413
  H       63.560     205.067     -52.652
  H       64.805     204.590     -51.469
  H       70.373     201.085     -52.385
  H       71.695     202.225     -52.464
  H       70.232     202.520     -53.373

 3  4  5  6  7  8  9  10  11  12  23  26  30  31 0
 6-311+G(2d,p)
 ****
 33  35  36  37  38 0
 6-311+G(2d,p)
 ****
 1  2  13  14  15  16  17  18  19  20  21  22  24  25 0
 3-21G
 ****
 27  28  29  32  34  39  40  41  42  43  44  45  46  47  48  49 0
 3-21G
 ****


