%nproc=1
%NoSave
%Mem=1900MB
#P OB98/GEN NMR

erre ene a

0 1
  C       12.561      78.207     256.504
  O       11.995      79.278     257.233
  H       13.609      78.099     256.799
  H       12.517      78.412     255.432
  H       12.033      77.278     256.730
  P       10.468      79.648     256.908
  C       11.130      81.788     255.591
  O       10.485      80.523     255.562
  C       10.415      82.751     254.650
  O       10.646      82.359     253.276
  C        8.901      82.773     254.817
  O        8.495      83.539     255.938
  C        8.474      83.390     253.494
  O        8.547      84.823     253.534
  C        9.512      82.809     252.507
  N        8.950      81.742     251.684
  C        8.041      82.147     250.711
  O        7.714      83.323     250.538
  N        7.483      81.146     249.960
  C        7.712      79.810     250.112
  O        7.123      78.961     249.456
  C        8.694      79.444     251.146
  C        9.253      80.408     251.880
  O       10.102      80.709     258.050
  O        9.527      78.489     256.891
  H        9.565      80.280     258.742
  H        8.218      85.136     252.668
  H        6.813      81.419     249.258
  H        8.903      78.388     251.288
  H        9.963      80.162     252.663
  H        9.879      83.596     251.835
  H        7.445      83.131     253.245
  H        8.511      81.750     254.874
  H       10.834      83.757     254.794
  H       12.171      81.676     255.263
  H       11.125      82.170     256.619
  P        7.170      83.099     256.729
  C        5.715      84.902     255.487
  O        5.928      83.541     255.816
  O        7.166      84.151     257.932
  O        7.167      81.667     257.143
  H        7.495      85.029     257.674
  H        4.842      84.989     254.875
  H        6.563      85.277     254.953
  H        5.579      85.469     256.384

 6  7  8  9  10  11  12  13  14  15  16  27  31  32  33  34  35 0
 6-311+G(2d,p)
 ****
 36  37 0
 6-311+G(2d,p)
 ****
 1  2  3  4  5  17  18  19  20  21  22  23  24  25 0
 3-21G
 ****
 26  28  29  30  38  39  40  41  42  43  44  45 0
 3-21G
 ****


