%nproc=1
%NoSave
%Mem=1900MB
#P OB98/GEN NMR

erre ene a

0 1
  C      132.916    -419.965     -81.434
  O      132.973    -419.782     -80.033
  P      133.732    -418.468     -79.495
  C      136.216    -417.868     -79.010
  O      135.283    -418.870     -79.407
  C      137.439    -418.508     -78.357
  O      137.097    -418.996     -77.047
  C      137.980    -419.706     -79.117
  O      138.740    -419.288     -80.234
  C      138.817    -420.392     -78.036
  O      140.141    -419.838     -77.974
  C      138.028    -420.066     -76.743
  N      137.343    -421.226     -76.194
  C      137.783    -421.650     -74.934
  O      138.704    -421.061     -74.370
  N      137.190    -422.747     -74.367
  C      136.249    -423.380     -75.010
  N      135.699    -424.462     -74.392
  C      135.774    -422.974     -76.345
  C      136.364    -421.906     -76.876
  O      133.276    -418.398     -77.965
  O      133.424    -417.218     -80.241
  H      140.027    -418.867     -78.053
  H      133.308    -417.476     -77.631
  H      134.988    -423.534     -76.837
  H      136.074    -421.548     -77.862
  H      138.703    -419.672     -75.972
  H      138.928    -421.466     -78.217
  H      137.172    -420.371     -79.429
  H      138.213    -417.738     -78.250
  H      136.046    -424.715     -73.478
  H      135.740    -417.199     -78.293
  H      134.942    -425.002     -74.802
  H      136.505    -417.285     -79.895
  P      138.686    -420.200     -81.556
  C      139.257    -422.689     -81.747
  O      139.661    -421.432     -81.235
  O      139.556    -419.343     -82.589
  O      137.333    -420.545     -82.091
  H      139.508    -419.756     -83.475
  H      140.075    -423.406     -81.599
  H      139.042    -422.623     -82.815
  H      138.382    -423.053     -81.206
  H      132.388    -420.869     -81.654
  H      133.910    -420.027     -81.826
  H      132.407    -419.137     -81.881

 3  4  5  6  7  8  9  10  11  12  13  21  23  27  28  29  30  32 0
 6-311+G(2d,p)
 ****
 34  35 0
 6-311+G(2d,p)
 ****
 1  2  14  15  16  17  18  19  20  22  24  25  26 0
 3-21G
 ****
 31  33  36  37  38  39  40  41  42  43  44  45  46 0
 3-21G
 ****


