%nproc=1
%NoSave
%Mem=1900MB
#P OB98/GEN NMR

erre ene a

0 1
  C     -444.090    -438.985     425.257
  O     -442.877    -438.662     424.615
  H     -444.381    -438.149     425.899
  H     -443.960    -439.877     425.879
  H     -444.890    -439.161     424.530
  P     -442.393    -439.564     423.382
  C     -442.161    -437.498     421.845
  O     -441.512    -438.619     422.430
  C     -441.267    -436.845     420.776
  O     -440.200    -436.121     421.439
  C     -440.606    -437.901     419.884
  O     -440.320    -437.403     418.576
  C     -439.292    -438.177     420.605
  O     -438.283    -438.711     419.746
  C     -438.957    -436.790     421.159
  N     -434.388    -435.900     423.235
  C     -434.746    -435.908     421.910
  N     -433.767    -435.634     421.013
  N     -435.960    -436.176     421.489
  C     -436.820    -436.497     422.492
  C     -436.571    -436.548     423.836
  C     -435.230    -436.214     424.298
  O     -434.856    -436.220     425.462
  N     -437.690    -436.916     424.542
  C     -438.616    -437.103     423.624
  N     -438.146    -436.834     422.358
  O     -443.730    -439.772     422.518
  O     -441.764    -440.875     423.743
  H     -438.058    -438.022     419.093
  H     -443.646    -440.559     421.961
  H     -433.448    -435.654     423.512
  H     -439.631    -437.413     423.810
  H     -438.415    -436.197     420.416
  H     -439.480    -438.914     421.385
  H     -432.799    -435.624     421.286
  H     -441.196    -438.810     419.793
  H     -433.938    -435.939     420.056
  H     -441.844    -436.118     420.206
  H     -442.371    -436.792     422.655
  H     -443.119    -437.794     421.417
  P     -441.350    -437.714     417.397
  C     -441.000    -435.430     416.090
  O     -440.976    -436.849     416.101
  O     -442.720    -437.081     417.904
  O     -441.491    -439.171     417.075
  H     -443.387    -437.771     418.053
  H     -440.715    -435.076     415.121
  H     -440.315    -435.056     416.822
  H     -441.988    -435.088     416.318

 6  7  8  9  10  11  12  13  14  15  26  29  33  34 0
 6-311+G(2d,p)
 ****
 36  38  39  40  41 0
 6-311+G(2d,p)
 ****
 1  2  3  4  5  16  17  18  19  20  21  22  23  24  25 0
 3-21G
 ****
 27  28  30  31  32  35  37  42  43  44  45  46  47 0
 3-21G
 ****
 48  49 0
 3-21G
 ****


