%nproc=1
%NoSave
%Mem=1900MB
#P OB98/GEN NMR

erre ene a

0 1
  C     -318.517    -899.333     237.580
  O     -318.160    -898.453     236.547
  P     -316.901    -897.473     236.699
  C     -317.309    -895.943     234.650
  O     -317.364    -896.063     236.069
  C     -318.256    -894.843     234.160
  O     -319.631    -895.193     234.422
  C     -318.053    -893.513     234.878
  O     -316.833    -892.813     234.679
  C     -319.331    -892.783     234.504
  O     -319.230    -892.213     233.195
  C     -320.380    -893.943     234.509
  N     -321.247    -893.883     235.680
  C     -322.039    -892.753     235.813
  O     -322.041    -891.823     235.003
  N     -322.823    -892.703     236.923
  C     -322.849    -893.633     237.944
  O     -323.549    -893.493     238.944
  C     -321.974    -894.793     237.779
  C     -321.223    -894.883     236.661
  O     -315.617    -898.003     236.174
  O     -316.890    -897.153     238.269
  H     -318.884    -892.893     232.587
  H     -317.698    -896.733     238.618
  H     -323.407    -891.883     237.039
  H     -321.987    -895.543     238.551
  H     -320.562    -895.713     236.514
  H     -321.010    -893.883     233.595
  H     -319.555    -891.953     235.184
  H     -318.104    -893.683     235.961
  H     -318.138    -894.753     233.095
  H     -317.637    -896.903     234.214
  H     -316.271    -895.753     234.336
  P     -315.944    -892.233     235.855
  C     -314.359    -890.953     234.246
  O     -315.252    -890.893     235.346
  O     -315.082    -893.213     236.617
  O     -317.061    -891.673     236.859
  H     -316.745    -891.733     237.783
  H     -313.950    -889.953     234.063
  H     -314.866    -891.283     233.365
  H     -313.526    -891.623     234.482
  H     -319.378    -899.897     237.287
  H     -318.742    -898.773     238.464
  H     -317.704    -900.000     237.777

 3  4  5  6  7  8  9  10  11  12  13  23  28  29  30  31  32 0
 6-311+G(2d,p)
 ****
 33  34 0
 6-311+G(2d,p)
 ****
 1  2  14  15  16  17  18  19  20  21  22  24  25  26  27 0
 3-21G
 ****
 35  36  37  38  39  40  41  42  43  44  45 0
 3-21G
 ****


