%nproc=1
%NoSave
%Mem=1900MB
#P OB98/GEN NMR

erre ene a

0 1
  C     -742.115    2031.302    1437.210
  O     -740.921    2030.767    1436.672
  H     -742.527    2030.578    1437.913
  H     -742.836    2031.479    1436.426
  H     -741.916    2032.235    1437.743
  P     -740.202    2031.633    1435.516
  C     -738.832    2029.933    1434.099
  O     -738.851    2030.814    1435.207
  C     -737.399    2029.831    1433.521
  O     -736.901    2031.148    1433.180
  C     -736.399    2029.270    1434.520
  O     -736.449    2027.849    1434.631
  C     -735.082    2029.709    1433.848
  O     -734.844    2028.874    1432.670
  C     -735.478    2031.139    1433.431
  N     -735.131    2032.167    1434.454
  C     -733.803    2032.575    1434.509
  O     -732.946    2032.125    1433.704
  N     -733.409    2033.488    1435.439
  C     -734.303    2033.924    1436.289
  N     -733.860    2034.833    1437.207
  C     -735.731    2033.553    1436.299
  C     -736.066    2032.670    1435.335
  O     -739.680    2032.931    1436.294
  O     -741.055    2031.925    1434.317
  H     -734.089    2029.284    1432.218
  H     -739.092    2033.469    1435.695
  H     -736.410    2033.928    1437.007
  H     -737.075    2032.294    1435.286
  H     -734.996    2031.425    1432.484
  H     -734.213    2029.645    1434.470
  H     -736.426    2029.753    1435.487
  H     -737.458    2029.247    1432.609
  H     -732.873    2035.046    1437.233
  H     -739.511    2030.310    1433.333
  H     -734.440    2035.160    1438.014
  H     -739.162    2028.926    1434.413
  P     -736.798    2027.260    1436.088
  C     -734.704    2025.659    1436.028
  O     -736.109    2025.791    1436.157
  O     -738.351    2026.931    1435.976
  O     -736.474    2028.143    1437.270
  H     -738.816    2027.084    1436.842
  H     -734.435    2024.626    1436.098
  H     -734.221    2026.207    1436.810
  H     -734.395    2026.044    1435.079

 6  7  8  9  10  11  12  13  14  15  16  26  30  31  32  33  35 0
 6-311+G(2d,p)
 ****
 37  38 0
 6-311+G(2d,p)
 ****
 1  2  3  4  5  17  18  19  20  21  22  23  24  25 0
 3-21G
 ****
 27  28  29  34  36  39  40  41  42  43  44  45  46 0
 3-21G
 ****


