%nproc=1
%NoSave
%Mem=1900MB
#P OB98/GEN NMR

erre ene a

0 1
  C      506.753    -169.072      17.917
  O      505.547    -168.608      18.545
  P      505.168    -169.002      20.055
  C      506.139    -168.648      22.419
  O      506.162    -168.227      21.053
  C      507.206    -167.922      23.252
  O      508.524    -168.209      22.747
  C      507.080    -166.407      23.267
  O      506.059    -165.999      24.165
  C      508.493    -165.992      23.664
  O      508.663    -166.099      25.093
  C      509.348    -167.040      22.940
  N      513.229    -164.594      20.664
  C      513.003    -164.943      21.952
  N      511.940    -165.588      22.484
  C      511.057    -165.900      21.520
  C      511.145    -165.609      20.172
  C      512.287    -164.918      19.745
  N      512.495    -164.545      18.435
  N      510.019    -166.062      19.501
  C      509.287    -166.644      20.434
  N      509.867    -166.574      21.674
  O      505.076    -170.469      20.299
  O      503.755    -168.292      20.317
  H      507.956    -165.581      25.510
  H      503.253    -168.797      20.984
  H      513.793    -164.668      22.652
  H      508.331    -167.127      20.256
  H      510.204    -167.354      23.553
  H      508.721    -164.959      23.385
  H      506.861    -166.036      22.256
  H      507.156    -168.323      24.272
  H      506.321    -169.729      22.448
  H      513.328    -164.020      18.211
  H      511.779    -164.746      17.748
  H      505.148    -168.439      22.823
  P      504.518    -166.270      23.802
  C      503.542    -168.593      23.315
  O      504.170    -167.760      24.274
  O      504.113    -165.931      22.402
  O      503.726    -165.376      24.866
  H      502.871    -165.091      24.487
  H      502.472    -168.358      23.286
  H      503.671    -169.627      23.618
  H      503.981    -168.458      22.331
  H      506.804    -168.692      16.918
  H      506.753    -170.142      17.892
  H      507.600    -168.728      18.473

 3  4  5  6  7  8  9  10  11  12  22  25  29  30  31  32 0
 6-311+G(2d,p)
 ****
 33  36  37 0
 6-311+G(2d,p)
 ****
 1  2  13  14  15  16  17  18  19  20  21  23  24  26 0
 3-21G
 ****
 27  28  34  35  38  39  40  41  42  43  44  45  46  47  48 0
 3-21G
 ****


