%nproc=1
%NoSave
%Mem=1900MB
#P OB98/GEN NMR

erre ene a

0 1
  C      216.693     969.044     260.760
  O      216.763     968.934     262.180
  P      216.484     970.130     263.205
  C      214.462     970.714     264.756
  O      214.925     970.139     263.552
  C      213.309     969.926     265.408
  O      212.276     969.649     264.410
  C      213.803     968.562     265.909
  O      214.415     968.454     267.178
  C      212.609     967.638     265.719
  O      211.815     967.511     266.895
  C      211.799     968.296     264.606
  N      209.890     964.496     261.759
  C      209.589     964.859     263.052
  N      208.666     964.080     263.698
  N      210.110     965.874     263.676
  C      211.070     966.514     262.943
  C      211.472     966.239     261.658
  C      210.838     965.140     260.980
  O      211.071     964.779     259.812
  N      212.473     967.086     261.267
  C      212.694     967.858     262.304
  N      211.855     967.554     263.353
  O      217.096     971.444     262.832
  O      217.188     969.636     264.567
  H      211.037     966.977     266.684
  H      217.512     970.439     265.025
  H      209.428     963.704     261.323
  H      213.421     968.658     262.359
  H      210.750     968.389     264.888
  H      212.951     966.613     265.479
  H      208.326     963.209     263.326
  H      214.557     968.215     265.193
  H      208.620     964.218     264.706
  H      212.820     970.509     266.191
  H      214.137     971.729     264.538
  H      215.282     970.785     265.484
  P      215.889     967.871     267.462
  C      218.279     968.795     267.462
  O      216.898     969.100     267.583
  O      216.315     967.188     266.075
  O      215.968     966.869     268.584
  H      217.064     966.581     266.207
  H      218.856     969.643     267.880
  H      218.539     968.646     266.415
  H      218.530     967.887     268.036
  H      216.924     968.098     260.317
  H      217.397     969.777     260.424
  H      215.705     969.340     260.473

 3  4  5  6  7  8  9  10  11  12  23  26  30  31 0
 6-311+G(2d,p)
 ****
 33  35  36  37  38 0
 6-311+G(2d,p)
 ****
 1  2  13  14  15  16  17  18  19  20  21  22  24  25 0
 3-21G
 ****
 27  28  29  32  34  39  40  41  42  43  44  45  46  47  48  49 0
 3-21G
 ****


