%nproc=1
%NoSave
%Mem=1900MB
#P OB98/GEN NMR

erre ene a

0 1
  C     -231.776    -240.545     593.701
  O     -231.830    -239.219     594.190
  H     -232.713    -241.051     593.955
  H     -230.948    -241.095     594.156
  H     -231.665    -240.542     592.613
  P     -230.478    -238.351     594.169
  C     -230.954    -236.942     592.055
  O     -230.204    -238.017     592.620
  C     -230.052    -236.022     591.228
  O     -229.259    -235.189     592.099
  C     -229.046    -236.763     590.361
  O     -229.624    -237.473     589.284
  C     -228.001    -235.694     590.086
  O     -228.314    -234.870     588.966
  C     -228.052    -234.854     591.385
  N     -226.863    -235.045     592.205
  C     -226.071    -233.916     592.401
  O     -226.319    -232.816     591.899
  N     -224.944    -234.101     593.158
  C     -224.526    -235.288     593.685
  O     -223.482    -235.394     594.320
  C     -225.390    -236.451     593.424
  C     -226.502    -236.278     592.712
  O     -229.304    -238.962     594.875
  O     -230.924    -236.938     594.768
  H     -229.211    -234.519     589.113
  H     -230.141    -236.409     595.055
  H     -224.364    -233.294     593.315
  H     -225.083    -237.406     593.827
  H     -227.159    -237.123     592.505
  H     -228.123    -233.786     591.141
  H     -227.022    -236.136     589.894
  H     -228.555    -237.520     590.985
  H     -230.692    -235.368     590.622
  H     -231.392    -236.371     592.881
  H     -231.766    -237.341     591.438
  P     -228.890    -238.676     588.531
  C     -229.484    -240.316     590.461
  O     -228.459    -239.767     589.636
  O     -227.906    -238.306     587.469
  O     -230.136    -239.403     587.807
  H     -229.809    -239.756     586.953
  H     -229.054    -241.021     591.142
  H     -230.209    -240.809     589.848
  H     -229.957    -239.530     591.012

 6  7  8  9  10  11  12  13  14  15  16  26  31  32  33  34  35 0
 6-311+G(2d,p)
 ****
 36  37 0
 6-311+G(2d,p)
 ****
 1  2  3  4  5  17  18  19  20  21  22  23  24  25 0
 3-21G
 ****
 27  28  29  30  38  39  40  41  42  43  44  45 0
 3-21G
 ****


