%nproc=1
%NoSave
%Mem=1900MB
#P OB98/GEN NMR

erre ene a

0 1
  C       33.202      88.516       3.964
  O       31.797      88.359       4.005
  H       33.554      88.443       2.933
  H       33.456      89.505       4.356
  H       33.692      87.757       4.581
  P       31.220      86.906       3.638
  C       29.791      86.846       5.810
  O       29.804      86.795       4.390
  C       28.381      86.581       6.342
  O       27.511      87.666       5.924
  C       27.772      85.271       5.829
  O       27.023      84.663       6.884
  C       26.833      85.726       4.724
  O       25.777      84.799       4.496
  C       26.372      87.083       5.259
  N       22.226      88.918       2.911
  C       22.375      88.149       4.009
  N       23.519      87.706       4.575
  C       24.589      88.185       3.912
  C       24.594      88.978       2.776
  C       23.339      89.343       2.263
  N       23.177      90.096       1.123
  N       25.893      89.231       2.369
  C       26.652      88.601       3.245
  N       25.908      87.951       4.191
  O       32.175      85.936       4.488
  O       31.213      86.557       2.187
  H       26.145      84.028       4.015
  H       33.023      85.820       4.016
  H       21.452      87.838       4.498
  H       27.733      88.576       3.233
  H       25.554      86.991       5.984
  H       27.393      85.846       3.788
  H       28.524      84.568       5.464
  H       28.411      86.602       7.437
  H       30.122      87.842       6.132
  H       22.240      90.266       0.795
  H       23.992      90.371       0.594
  H       30.484      86.095       6.205
  P       27.738      83.466       7.682
  C       26.912      84.241      10.014
  O       26.929      83.203       9.044
  O       29.115      84.118       8.176
  O       27.980      82.250       6.844
  H       29.861      83.534       7.948
  H       26.340      83.927      10.862
  H       26.470      85.118       9.590
  H       27.914      84.459      10.320

 6  7  8  9  10  11  12  13  14  15  25  28  32  33  34  35 0
 6-311+G(2d,p)
 ****
 36  39  40 0
 6-311+G(2d,p)
 ****
 1  2  3  4  5  16  17  18  19  20  21  22  23  24 0
 3-21G
 ****
 26  27  29  30  31  37  38  41  42  43  44  45  46  47 0
 3-21G
 ****
 48 0
 3-21G
 ****


