%nproc=1
%NoSave
%Mem=1900MB
#P OB98/GEN NMR

erre ene a

0 1
  C     -331.563     338.992    -640.776
  O     -331.682     339.638    -639.505
  P     -330.421     339.528    -638.520
  C     -329.847     342.051    -638.317
  O     -329.456     340.776    -638.803
  C     -330.099     343.006    -639.481
  O     -331.271     342.629    -640.238
  C     -330.351     344.444    -639.045
  O     -329.144     345.076    -638.655
  C     -330.986     345.017    -640.306
  O     -329.981     345.334    -641.283
  C     -331.836     343.837    -640.805
  N     -336.372     345.833    -642.075
  C     -335.155     345.921    -642.652
  N     -333.992     345.359    -642.251
  C     -334.176     344.637    -641.133
  C     -335.358     344.454    -640.435
  C     -336.499     345.097    -640.946
  N     -337.736     345.021    -640.352
  N     -335.156     343.648    -639.335
  C     -333.867     343.370    -639.356
  N     -333.233     343.936    -640.429
  O     -329.607     338.278    -639.100
  O     -330.794     339.326    -637.090
  H     -330.413     345.324    -642.159
  H     -329.692     337.517    -638.499
  H     -335.102     346.520    -643.556
  H     -333.348     342.770    -638.620
  H     -331.804     343.730    -641.895
  H     -331.561     345.933    -640.120
  H     -331.070     344.468    -638.218
  H     -329.231     342.968    -640.152
  H     -329.072     342.463    -637.662
  H     -338.484     345.575    -640.736
  H     -337.823     344.545    -639.465
  H     -330.745     341.934    -637.703
  P     -329.120     345.829    -637.242
  C     -326.887     344.765    -636.557
  O     -328.276     344.843    -636.297
  O     -330.616     345.606    -636.731
  O     -328.650     347.243    -637.289
  H     -330.911     344.687    -636.860
  H     -326.434     344.089    -635.827
  H     -326.428     345.750    -636.464
  H     -326.716     344.366    -637.562
  H     -332.463     339.137    -641.336
  H     -331.399     337.945    -640.630
  H     -330.738     339.411    -641.313

 3  4  5  6  7  8  9  10  11  12  22  25  29  30  31  32 0
 6-311+G(2d,p)
 ****
 33  36  37 0
 6-311+G(2d,p)
 ****
 1  2  13  14  15  16  17  18  19  20  21  23  24  26 0
 3-21G
 ****
 27  28  34  35  38  39  40  41  42  43  44  45  46  47  48 0
 3-21G
 ****


