%nproc=1
%NoSave
%Mem=1900MB
#P OB98/GEN NMR

erre ene a

0 1
  C     -896.260    -504.831    1672.093
  O     -897.060    -505.602    1672.987
  H     -895.320    -504.608    1672.574
  H     -896.760    -503.910    1671.838
  H     -896.040    -505.408    1671.179
  P     -898.430    -506.207    1672.442
  C     -898.370    -508.695    1673.236
  O     -898.140    -507.787    1672.152
  C     -897.050    -509.409    1673.618
  O     -896.050    -508.379    1673.949
  C     -897.160    -510.369    1674.787
  O     -896.190    -511.410    1674.622
  C     -896.750    -509.460    1675.941
  O     -896.530    -510.151    1677.153
  C     -895.570    -508.715    1675.284
  N     -895.100    -507.529    1675.980
  C     -894.370    -507.700    1677.161
  O     -894.110    -508.818    1677.660
  N     -893.980    -506.538    1677.787
  C     -894.190    -505.277    1677.357
  O     -893.780    -504.269    1677.967
  C     -894.970    -505.193    1676.113
  C     -895.380    -506.259    1675.488
  O     -899.090    -505.480    1671.308
  O     -899.360    -506.276    1673.742
  H     -900.000    -505.532    1673.718
  H     -896.190    -509.534    1677.806
  H     -893.460    -506.707    1678.634
  H     -895.160    -504.148    1675.775
  H     -895.960    -506.192    1674.557
  H     -894.710    -509.425    1675.152
  H     -897.570    -508.726    1676.160
  H     -898.170    -510.819    1674.887
  H     -896.650    -509.909    1672.682
  H     -899.090    -509.435    1672.890
  H     -898.740    -508.142    1674.078
  P     -896.620    -512.944    1674.278
  C     -894.920    -513.271    1672.322
  O     -896.270    -513.233    1672.731
  O     -898.020    -513.280    1674.681
  O     -895.530    -513.824    1675.108
  H     -895.950    -514.692    1675.301
  H     -894.871    -513.473    1671.272
  H     -894.407    -514.042    1672.858
  H     -894.459    -512.327    1672.526

 6  7  8  9  10  11  12  13  14  15  16  27  31  32  33  34  35 0
 6-311+G(2d,p)
 ****
 36  37 0
 6-311+G(2d,p)
 ****
 1  2  3  4  5  17  18  19  20  21  22  23  24  25 0
 3-21G
 ****
 26  28  29  30  38  39  40  41  42  43  44  45 0
 3-21G
 ****


