%nproc=1
%NoSave
%Mem=1900MB
#P OB98/GEN NMR

erre ene a

0 1
  C     -152.537     116.638     448.807
  O     -152.688     115.662     449.810
  H     -153.506     117.132     448.650
  H     -152.217     116.189     447.865
  H     -151.812     117.402     449.124
  P     -151.421     114.748     450.189
  C     -150.248     116.434     451.762
  O     -150.209     115.743     450.513
  C     -149.438     115.669     452.809
  O     -148.062     115.583     452.336
  C     -149.432     116.380     454.176
  O     -149.829     115.530     455.253
  C     -148.034     116.994     454.253
  O     -147.539     117.193     455.560
  C     -147.185     116.044     453.395
  N     -145.986     116.654     452.823
  C     -144.990     115.784     452.365
  O     -145.064     114.558     452.380
  N     -143.881     116.398     451.867
  C     -143.650     117.744     451.773
  O     -142.632     118.223     451.298
  C     -144.725     118.597     452.300
  C     -145.823     118.031     452.786
  O     -151.101     113.657     449.223
  O     -151.791     114.161     451.637
  H     -146.636     117.579     455.466
  H     -152.086     113.228     451.544
  H     -143.156     115.775     451.503
  H     -144.571     119.670     452.253
  H     -146.639     118.627     453.188
  H     -146.882     115.165     453.973
  H     -148.068     117.977     453.755
  H     -150.172     117.184     454.206
  H     -149.830     114.647     452.893
  H     -151.297     116.507     452.068
  H     -149.836     117.444     451.638
  P     -151.100     115.777     456.193
  C     -152.536     113.986     454.914
  O     -152.410     115.323     455.387
  O     -151.153     117.109     456.870
  O     -150.953     114.649     457.325
  H     -151.323     115.035     458.157
  H     -153.470     113.875     454.404
  H     -152.499     113.310     455.742
  H     -151.734     113.769     454.240

 6  7  8  9  10  11  12  13  14  15  16  26  31  32  33  34  35 0
 6-311+G(2d,p)
 ****
 36  37 0
 6-311+G(2d,p)
 ****
 1  2  3  4  5  17  18  19  20  21  22  23  24  25 0
 3-21G
 ****
 27  28  29  30  38  39  40  41  42  43  44  45 0
 3-21G
 ****


