%nproc=1
%NoSave
%Mem=1900MB
#P OB98/GEN NMR

erre ene a

0 1
  C      -52.352    -268.904     -89.213
  O      -51.769    -269.627     -90.274
  H      -51.565    -268.609     -88.514
  H      -53.067    -269.542     -88.687
  H      -52.860    -268.004     -89.570
  P      -52.586    -269.781     -91.640
  C      -50.655    -271.204     -92.601
  O      -52.058    -271.102     -92.389
  C      -50.311    -272.331     -93.574
  O      -50.479    -273.605     -92.914
  C      -51.220    -272.345     -94.804
  O      -50.783    -271.513     -95.868
  C      -51.182    -273.816     -95.207
  O      -50.083    -274.089     -96.096
  C      -50.985    -274.548     -93.873
  N      -53.829    -278.778     -93.446
  C      -52.693    -278.569     -94.209
  N      -52.299    -279.606     -94.975
  N      -52.033    -277.440     -94.221
  C      -52.606    -276.464     -93.483
  C      -53.741    -276.547     -92.703
  C      -54.424    -277.823     -92.633
  O      -55.420    -278.064     -91.960
  N      -54.044    -275.335     -92.125
  C      -53.146    -274.509     -92.625
  N      -52.207    -275.161     -93.390
  O      -51.998    -268.605     -92.562
  O      -54.075    -269.662     -91.519
  H      -50.279    -274.920     -96.572
  H      -52.693    -268.286     -93.165
  H      -54.278    -279.674     -93.453
  H      -53.107    -273.445     -92.434
  H      -50.239    -275.348     -93.963
  H      -52.093    -274.099     -95.743
  H      -52.817    -280.466     -95.070
  H      -52.249    -272.096     -94.528
  H      -51.586    -279.433     -95.689
  H      -49.253    -272.254     -93.857
  H      -50.210    -271.400     -91.624
  H      -50.254    -270.254     -92.960
  P      -51.543    -270.148     -96.208
  C      -50.165    -270.011     -98.435
  O      -51.401    -269.867     -97.771
  O      -50.603    -269.038     -95.544
  O      -52.950    -270.055     -95.714
  H      -50.951    -268.764     -94.677
  H      -50.288    -269.776     -99.472
  H      -49.822    -271.020     -98.336
  H      -49.447    -269.346     -98.001

 6  7  8  9  10  11  12  13  14  15  26  29  33  34 0
 6-311+G(2d,p)
 ****
 36  38  39  40  41 0
 6-311+G(2d,p)
 ****
 1  2  3  4  5  16  17  18  19  20  21  22  23  24  25 0
 3-21G
 ****
 27  28  30  31  32  35  37  42  43  44  45  46  47 0
 3-21G
 ****
 48  49 0
 3-21G
 ****


