%nproc=1
%NoSave
%Mem=1900MB
#P OB98/GEN NMR

erre ene a

0 1
  C       -2.587    -233.870     234.143
  O       -3.083    -235.188     234.001
  H       -2.054    -233.597     233.225
  H       -1.887    -233.823     234.977
  H       -3.405    -233.162     234.294
  P       -4.027    -235.792     235.147
  C       -5.557    -236.870     233.371
  O       -4.765    -237.083     234.530
  C       -5.602    -238.141     232.507
  O       -4.362    -238.237     231.762
  C       -5.767    -239.438     233.317
  O       -6.602    -240.341     232.594
  C       -4.354    -239.984     233.392
  O       -4.331    -241.403     233.561
  C       -3.764    -239.519     232.057
  N        0.541    -242.126     232.552
  C       -0.761    -242.571     232.441
  N       -0.955    -243.906     232.482
  N       -1.790    -241.775     232.302
  C       -1.448    -240.459     232.246
  C       -0.202    -239.895     232.347
  C        0.926    -240.785     232.520
  O        2.103    -240.449     232.646
  N       -0.265    -238.519     232.270
  C       -1.555    -238.260     232.125
  N       -2.317    -239.403     232.119
  O       -4.944    -234.800     235.796
  O       -3.011    -236.431     236.205
  H       -3.393    -241.654     233.711
  H       -2.939    -235.874     236.999
  H        1.295    -242.780     232.669
  H       -1.983    -237.272     232.027
  H       -3.998    -240.209     231.232
  H       -3.822    -239.526     234.235
  H       -0.206    -244.578     232.565
  H       -6.191    -239.252     234.306
  H       -1.899    -244.263     232.374
  H       -6.411    -238.036     231.775
  H       -5.116    -236.051     232.794
  H       -6.575    -236.587     233.673
  P       -7.998    -240.800     233.244
  C       -9.111    -240.977     230.929
  O       -8.822    -241.646     232.152
  O       -8.777    -239.719     233.917
  O       -7.552    -241.928     234.297
  H       -8.143    -241.887     235.069
  H       -9.659    -241.633     230.285
  H       -8.196    -240.692     230.454
  H       -9.696    -240.104     231.130

 6  7  8  9  10  11  12  13  14  15  26  29  33  34 0
 6-311+G(2d,p)
 ****
 36  38  39  40  41 0
 6-311+G(2d,p)
 ****
 1  2  3  4  5  16  17  18  19  20  21  22  23  24  25 0
 3-21G
 ****
 27  28  30  31  32  35  37  42  43  44  45  46  47 0
 3-21G
 ****
 48  49 0
 3-21G
 ****


