%nproc=1
%NoSave
%Mem=1900MB
#P OB98/GEN NMR

erre ene a

0 1
  C      -44.032      33.488      60.136
  O      -44.108      34.742      59.480
  P      -44.176      36.102      60.315
  C      -44.180      38.611      59.542
  O      -43.697      37.297      59.373
  C      -43.436      39.542      58.576
  O      -42.082      39.750      59.030
  C      -43.377      38.958      57.167
  O      -44.442      39.459      56.374
  C      -42.007      39.394      56.685
  O      -42.048      40.753      56.213
  C      -41.175      39.303      57.987
  N      -40.641      37.985      58.379
  C      -39.354      37.892      58.901
  O      -38.622      38.858      59.090
  N      -38.917      36.621      59.182
  C      -39.647      35.476      59.036
  O      -39.174      34.346      59.056
  C      -41.071      35.667      58.746
  C      -41.490      36.888      58.413
  O      -42.971      35.947      61.356
  O      -45.476      36.372      60.999
  H      -42.715      40.791      55.504
  H      -43.303      35.651      62.225
  H      -37.936      36.533      59.428
  H      -41.718      34.801      58.758
  H      -42.535      37.047      58.156
  H      -40.329      39.999      57.960
  H      -41.675      38.790      55.842
  H      -43.401      37.862      57.209
  H      -43.940      40.516      58.564
  H      -44.030      38.936      60.577
  H      -45.257      38.644      59.345
  P      -44.582      38.986      54.851
  C      -46.543      38.791      53.213
  O      -46.159      38.952      54.564
  O      -43.837      37.744      54.490
  O      -44.059      40.256      54.024
  H      -43.123      40.122      53.768
  H      -47.618      38.604      53.173
  H      -46.016      37.944      52.762
  H      -46.323      39.705      52.655
  H      -43.995      32.706      59.407
  H      -44.894      33.357      60.756
  H      -43.149      33.454      60.740

 3  4  5  6  7  8  9  10  11  12  13  23  28  29  30  31  32 0
 6-311+G(2d,p)
 ****
 33  34 0
 6-311+G(2d,p)
 ****
 1  2  14  15  16  17  18  19  20  21  22  24  25  26  27 0
 3-21G
 ****
 35  36  37  38  39  40  41  42  43  44  45 0
 3-21G
 ****


