%nproc=1
%NoSave
%Mem=1900MB
#P OB98/GEN NMR

erre ene a

0 1
  C      -27.536      74.134      39.331
  O      -28.781      74.586      39.842
  P      -28.889      75.966      40.656
  C      -27.405      76.936      42.519
  O      -27.964      75.758      41.951
  C      -27.538      76.903      44.040
  O      -28.947      76.940      44.375
  C      -26.993      75.650      44.731
  O      -25.600      75.682      44.997
  C      -27.760      75.703      46.050
  O      -27.147      76.663      46.934
  C      -29.140      76.195      45.607
  N      -33.781      74.341      46.729
  C      -33.144      75.480      47.100
  N      -31.899      75.892      46.774
  C      -31.314      75.015      45.938
  C      -31.839      73.819      45.472
  C      -33.137      73.488      45.901
  N      -33.790      72.339      45.502
  N      -30.929      73.175      44.648
  C      -29.888      73.982      44.615
  N      -30.073      75.107      45.371
  O      -30.281      76.423      40.917
  O      -28.048      77.007      39.781
  H      -26.901      77.434      46.387
  H      -28.267      77.924      40.045
  H      -33.708      76.144      47.753
  H      -28.977      73.789      44.062
  H      -29.597      76.881      46.333
  H      -27.765      74.742      46.575
  H      -27.275      74.738      44.189
  H      -27.071      77.808      44.452
  H      -27.951      77.802      42.130
  H      -34.764      72.248      45.755
  H      -33.378      71.788      44.763
  H      -26.354      77.028      42.217
  P      -24.777      74.317      44.767
  C      -24.477      72.175      46.242
  O      -24.824      73.542      46.172
  O      -23.421      74.501      44.177
  O      -25.768      73.460      43.839
  H      -26.594      73.179      44.267
  H      -24.417      71.884      47.297
  H      -23.507      71.994      45.778
  H      -25.245      71.567      45.753
  H      -27.676      73.202      38.824
  H      -26.846      74.001      40.138
  H      -27.148      74.858      38.646

 3  4  5  6  7  8  9  10  11  12  22  25  29  30  31  32 0
 6-311+G(2d,p)
 ****
 33  36  37 0
 6-311+G(2d,p)
 ****
 1  2  13  14  15  16  17  18  19  20  21  23  24  26 0
 3-21G
 ****
 27  28  34  35  38  39  40  41  42  43  44  45  46  47  48 0
 3-21G
 ****


