%nproc=1
%NoSave
%Mem=1900MB
#P OB98/GEN NMR

erre ene a

0 1
  C       45.636      52.114     -65.228
  O       45.768      52.029     -63.807
  P       45.647      50.567     -63.157
  C       43.389      51.080     -61.990
  O       44.095      50.247     -62.901
  C       42.696      50.264     -60.891
  O       41.550      49.547     -61.421
  C       43.611      49.230     -60.229
  O       43.221      49.128     -58.857
  C       43.239      47.942     -60.938
  O       43.615      46.802     -60.168
  C       41.727      48.146     -61.121
  N       41.154      47.295     -62.163
  C       41.161      45.917     -61.933
  O       41.696      45.458     -60.921
  N       40.600      45.085     -62.869
  C       40.124      45.583     -63.968
  N       39.583      44.707     -64.860
  C       40.148      47.026     -64.281
  C       40.670      47.812     -63.341
  O       46.242      50.767     -61.684
  O       46.396      49.514     -63.909
  H       43.610      46.018     -60.760
  H       46.906      50.076     -61.496
  H       39.757      47.393     -65.219
  H       40.729      48.883     -63.477
  H       41.193      47.935     -60.186
  H       43.741      47.886     -61.913
  H       44.674      49.482     -60.294
  H       42.323      50.962     -60.133
  H       39.578      43.726     -64.606
  H       42.637      51.662     -62.529
  H       39.186      44.983     -65.745
  H       44.086      51.807     -61.560
  P       43.692      50.278     -57.845
  C       45.403      48.866     -56.551
  O       45.212      49.911     -57.485
  O       42.936      49.848     -56.495
  O       43.406      51.699     -58.199
  H       43.084      50.521     -55.806
  H       46.470      48.638     -56.493
  H       44.867      47.966     -56.869
  H       45.058      49.181     -55.560
  H       45.735      53.134     -65.535
  H       44.675      51.746     -65.520
  H       46.399      51.526     -65.693

 3  4  5  6  7  8  9  10  11  12  13  21  23  27  28  29  30  32 0
 6-311+G(2d,p)
 ****
 34  35 0
 6-311+G(2d,p)
 ****
 1  2  14  15  16  17  18  19  20  22  24  25  26 0
 3-21G
 ****
 31  33  36  37  38  39  40  41  42  43  44  45  46 0
 3-21G
 ****


