%nproc=1
%NoSave
%Mem=1900MB
#P OB98/GEN NMR

erre ene a

0 1
  C      -36.992    -899.470    1079.824
  O      -37.364    -898.160    1079.479
  P      -38.495    -897.920    1078.337
  C      -37.806    -895.427    1078.219
  O      -38.057    -896.629    1077.487
  C      -37.284    -894.319    1077.314
  O      -35.957    -894.653    1076.809
  C      -38.146    -894.101    1076.066
  O      -39.349    -893.428    1076.395
  C      -37.176    -893.268    1075.221
  O      -37.146    -891.886    1075.620
  C      -35.816    -893.948    1075.538
  N      -35.357    -894.843    1074.494
  C      -34.573    -894.270    1073.502
  O      -34.366    -893.056    1073.498
  N      -34.035    -895.079    1072.496
  C      -34.384    -896.353    1072.469
  N      -33.794    -897.132    1071.513
  C      -35.360    -896.970    1073.393
  C      -35.798    -896.171    1074.396
  O      -39.914    -897.900    1078.802
  O      -38.249    -899.130    1077.297
  H      -39.112    -899.550    1077.114
  H      -36.195    -891.600    1075.552
  H      -35.679    -897.990    1073.254
  H      -36.487    -896.512    1075.115
  H      -35.030    -893.177    1075.701
  H      -37.425    -893.309    1074.153
  H      -38.361    -895.033    1075.575
  H      -37.194    -893.389    1077.924
  H      -33.132    -896.673    1070.882
  H      -37.073    -895.631    1079.003
  H      -33.745    -898.150    1071.591
  H      -38.739    -895.094    1078.741
  P      -40.705    -894.286    1076.276
  C      -41.935    -892.090    1076.833
  O      -41.910    -893.286    1076.070
  O      -40.915    -894.858    1077.766
  O      -40.628    -895.431    1075.268
  H      -41.252    -895.775    1077.752
  H      -42.591    -891.347    1076.341
  H      -40.915    -891.648    1076.881
  H      -42.297    -892.270    1077.844
  H      -36.242    -899.439    1080.586
  H      -36.603    -899.970    1078.961
  H      -37.848    -900.000    1080.187

 3  4  5  6  7  8  9  10  11  12  13  24  27  28  29  30  32 0
 6-311+G(2d,p)
 ****
 34  35 0
 6-311+G(2d,p)
 ****
 1  2  14  15  16  17  18  19  20  21  22  23  25  26 0
 3-21G
 ****
 31  33  36  37  38  39  40  41  42  43  44  45  46 0
 3-21G
 ****


