%nproc=1
%NoSave
%Mem=1900MB
#P OB98/GEN NMR

erre ene a

0 1
  C     -676.302    -348.289     170.970
  O     -676.696    -349.614     170.675
  H     -675.878    -348.264     171.978
  H     -677.178    -347.633     170.946
  H     -675.550    -347.933     170.263
  P     -676.974    -349.968     169.135
  C     -674.947    -351.580     168.951
  O     -676.356    -351.432     168.883
  C     -674.567    -353.060     169.019
  O     -674.676    -353.505     170.409
  C     -675.459    -353.973     168.166
  O     -674.651    -355.026     167.616
  C     -676.396    -354.589     169.193
  O     -676.944    -355.828     168.758
  C     -675.455    -354.713     170.393
  N     -676.197    -357.961     174.145
  C     -675.252    -357.953     173.143
  N     -674.402    -359.005     173.082
  N     -675.147    -356.996     172.257
  C     -676.042    -355.996     172.439
  C     -677.031    -355.887     173.391
  C     -677.147    -356.963     174.353
  O     -677.981    -357.037     175.252
  N     -677.771    -354.752     173.198
  C     -677.249    -354.182     172.122
  N     -676.196    -354.898     171.627
  O     -675.960    -348.994     168.364
  O     -678.383    -349.784     168.682
  H     -677.597    -356.126     169.422
  H     -676.428    -348.179     168.099
  H     -676.247    -358.733     174.793
  H     -677.601    -353.272     171.660
  H     -674.768    -355.567     170.301
  H     -677.219    -353.900     169.408
  H     -674.406    -359.761     173.745
  H     -675.991    -353.456     167.360
  H     -673.683    -358.991     172.375
  H     -673.511    -353.165     168.732
  H     -674.573    -351.075     169.852
  H     -674.488    -351.110     168.074
  P     -675.171    -355.765     166.290
  C     -673.084    -355.375     164.792
  O     -673.905    -356.311     165.476
  O     -675.705    -354.557     165.386
  O     -676.248    -356.767     166.553
  H     -676.476    -354.846     164.869
  H     -672.287    -355.892     164.300
  H     -672.677    -354.677     165.494
  H     -673.670    -354.850     164.066

 6  7  8  9  10  11  12  13  14  15  26  29  33  34 0
 6-311+G(2d,p)
 ****
 36  38  39  40  41 0
 6-311+G(2d,p)
 ****
 1  2  3  4  5  16  17  18  19  20  21  22  23  24  25 0
 3-21G
 ****
 27  28  30  31  32  35  37  42  43  44  45  46  47 0
 3-21G
 ****
 48  49 0
 3-21G
 ****


