%nproc=1
%NoSave
%Mem=1900MB
#P OB98/GEN NMR

erre ene a

0 1
  C      116.735     -98.253      37.271
  O      117.968     -98.635      37.850
  H      116.931     -97.513      36.491
  H      116.074     -97.808      38.020
  H      116.249     -99.122      36.816
  P      117.932     -99.502      39.203
  C      117.936     -97.348      40.625
  O      117.239     -98.549      40.299
  C      117.147     -96.505      41.628
  O      115.774     -96.360      41.207
  C      117.065     -97.112      43.021
  O      118.292     -97.173      43.711
  C      115.905     -96.337      43.631
  O      116.309     -95.067      44.143
  C      114.987     -96.144      42.399
  N      113.818     -97.020      42.437
  C      112.585     -96.388      42.326
  O      112.448     -95.168      42.225
  N      111.490     -97.211      42.370
  C      111.508     -98.562      42.554
  O      110.489     -99.241      42.605
  C      112.843     -99.169      42.705
  C      113.921     -98.381      42.638
  O      119.248    -100.074      39.641
  O      116.810    -100.607      38.922
  H      116.621     -94.540      43.382
  H      116.864    -101.347      39.577
  H      110.584     -96.775      42.276
  H      112.896    -100.236      42.868
  H      114.917     -98.807      42.743
  H      114.629     -95.106      42.351
  H      115.434     -96.882      44.451
  H      116.725     -98.153      42.925
  H      117.594     -95.504      41.657
  H      118.068     -96.776      39.699
  H      118.922     -97.597      41.033
  P      118.583     -98.184      44.912
  C      118.505     -96.212      46.628
  O      118.067     -97.520      46.277
  O      119.924     -98.849      44.915
  O      117.472     -99.328      44.652
  H      117.868    -100.181      44.932
  H      118.067     -95.928      47.562
  H      118.206     -95.520      45.868
  H      119.571     -96.205      46.718

 6  7  8  9  10  11  12  13  14  15  16  26  31  32  33  34  35 0
 6-311+G(2d,p)
 ****
 36  37 0
 6-311+G(2d,p)
 ****
 1  2  3  4  5  17  18  19  20  21  22  23  24  25 0
 3-21G
 ****
 27  28  29  30  38  39  40  41  42  43  44  45 0
 3-21G
 ****


