%nproc=1
%NoSave
%Mem=1900MB
#P OB98/GEN NMR

erre ene a

0 1
  C     -164.150    -905.989     108.101
  O     -165.052    -906.613     109.029
  P     -165.743    -905.712     110.170
  C     -166.365    -907.400     112.071
  O     -166.803    -906.615     110.966
  C     -167.571    -907.851     112.901
  O     -168.414    -906.724     113.230
  C     -168.487    -908.842     112.193
  O     -167.944    -910.150     112.173
  C     -169.758    -908.722     113.033
  O     -169.673    -909.544     114.209
  C     -169.758    -907.229     113.402
  N     -170.723    -906.455     112.623
  C     -172.018    -906.378     113.141
  O     -172.370    -906.973     114.159
  N     -172.900    -905.625     112.422
  C     -172.643    -905.004     111.229
  O     -173.491    -904.353     110.620
  C     -171.285    -905.184     110.694
  C     -170.400    -905.893     111.401
  O     -166.707    -904.760     109.305
  O     -164.812    -904.899     111.008
  H     -170.540    -909.475     114.656
  H     -166.837    -903.915     109.779
  H     -173.831    -905.532     112.789
  H     -171.049    -904.725     109.740
  H     -169.398    -906.034     111.025
  H     -169.991    -907.107     114.469
  H     -170.649    -909.042     112.480
  H     -168.697    -908.486     111.175
  H     -167.194    -908.283     113.841
  H     -165.704    -906.796     112.703
  H     -165.807    -908.261     111.695
  P     -167.879    -910.878     110.744
  C     -168.621    -913.182     111.726
  O     -167.627    -912.426     111.067
  O     -166.474    -910.340     110.187
  O     -169.054    -910.566     109.871
  H     -165.824    -910.201     110.899
  H     -169.631    -912.849     111.457
  H     -168.487    -913.089     112.805
  H     -168.512    -914.236     111.438
  H     -163.782    -906.722     107.414
  H     -163.330    -905.558     108.636
  H     -164.667    -905.223     107.562

 3  4  5  6  7  8  9  10  11  12  13  23  28  29  30  31  32 0
 6-311+G(2d,p)
 ****
 33  34 0
 6-311+G(2d,p)
 ****
 1  2  14  15  16  17  18  19  20  21  22  24  25  26 0
 3-21G
 ****
 27  35  36  37  38  39  40  41  42  43  44  45 0
 3-21G
 ****


