%nproc=1
%NoSave
%Mem=1900MB
#P OB98/GEN NMR

erre ene a

0 1
  C     -888.520    -558.375    -893.210
  O     -889.110    -559.671    -893.430
  P     -890.440    -560.046    -892.590
  C     -891.890    -560.232    -894.710
  O     -891.740    -559.651    -893.440
  C     -893.280    -559.900    -895.350
  O     -894.330    -560.520    -894.560
  C     -893.560    -558.413    -895.390
  O     -894.330    -558.136    -896.580
  C     -894.440    -558.171    -894.160
  O     -895.180    -556.937    -894.270
  C     -895.260    -559.512    -894.220
  N     -899.530    -559.032    -891.440
  C     -899.220    -558.601    -892.700
  N     -898.050    -558.776    -893.360
  C     -897.130    -559.427    -892.570
  C     -897.310    -559.894    -891.270
  C     -898.560    -559.645    -890.670
  N     -898.900    -560.007    -889.420
  N     -896.150    -560.474    -890.810
  C     -895.330    -560.363    -891.820
  N     -895.850    -559.802    -892.920
  O     -890.420    -558.933    -891.350
  O     -890.420    -561.416    -892.020
  H     -895.800    -557.035    -895.040
  H     -890.140    -559.359    -890.560
  H     -900.000    -558.129    -893.240
  H     -894.240    -560.728    -891.750
  H     -896.080    -559.456    -894.930
  H     -893.830    -558.112    -893.250
  H     -892.670    -557.716    -895.390
  H     -893.270    -560.326    -896.400
  H     -891.760    -561.325    -894.620
  H     -899.810    -559.785    -889.030
  H     -898.200    -560.478    -888.820
  H     -891.050    -559.908    -895.360
  P     -893.550    -558.103    -898.010
  C     -895.260    -559.757    -899.030
  O     -893.910    -559.525    -898.730
  O     -892.010    -558.361    -897.550
  O     -893.710    -556.872    -898.790
  H     -891.420    -557.917    -898.230
  H     -895.320    -560.228    -900.000
  H     -895.870    -558.896    -899.030
  H     -895.700    -560.486    -898.290
  H     -887.654    -558.268    -893.829
  H     -888.238    -558.281    -892.182
  H     -889.230    -557.613    -893.456

 3  4  5  6  7  8  9  10  11  12  22  25  29  30  31  32 0
 6-311+G(2d,p)
 ****
 33  36  37 0
 6-311+G(2d,p)
 ****
 1  2  13  14  15  16  17  18  19  20  21  23  24  26 0
 3-21G
 ****
 27  28  34  35  38  39  40  41  42  43  44  45  46  47  48 0
 3-21G
 ****


