%nproc=1
%NoSave
%Mem=1900MB
#P OB98/GEN NMR

erre ene a

0 1
  C      -68.867     -24.876       4.798
  O      -69.882     -25.560       4.074
  P      -69.823     -25.495       2.469
  C      -70.096     -23.441       0.903
  O      -70.551     -24.124       2.066
  C      -71.007     -22.260       0.584
  O      -72.307     -22.729       0.176
  C      -71.259     -21.321       1.755
  O      -70.204     -20.391       1.935
  C      -72.518     -20.610       1.289
  O      -72.177     -19.585       0.338
  C      -73.286     -21.741       0.594
  N      -77.700     -21.051       3.082
  C      -76.927     -20.204       2.369
  N      -75.759     -20.462       1.746
  C      -75.383     -21.737       1.945
  C      -76.049     -22.704       2.680
  C      -77.271     -22.325       3.260
  N      -78.072     -23.197       3.961
  N      -75.354     -23.892       2.659
  C      -74.293     -23.653       1.919
  N      -74.270     -22.367       1.455
  O      -70.876     -26.616       2.025
  O      -68.474     -25.723       1.878
  H      -71.698     -18.890       0.829
  H      -70.672     -26.925       1.121
  H      -77.302     -19.188       2.280
  H      -73.526     -24.378       1.684
  H      -73.806     -21.398      -0.307
  H      -73.058     -20.121       2.106
  H      -71.473     -21.881       2.675
  H      -70.566     -21.712      -0.259
  H      -70.102     -24.135       0.057
  H      -79.009     -22.902       4.184
  H      -77.849     -24.185       3.920
  H      -69.070     -23.098       1.068
  P      -69.700     -20.150       3.441
  C      -70.889     -19.463       5.647
  O      -71.010     -19.736       4.263
  O      -68.864     -18.791       3.330
  O      -68.892     -21.272       4.001
  H      -68.194     -18.743       4.039
  H      -71.774     -18.909       5.974
  H      -70.002     -18.858       5.855
  H      -70.834     -20.402       6.206
  H      -69.030     -25.004       5.848
  H      -68.897     -23.834       4.557
  H      -67.910     -25.276       4.534

 3  4  5  6  7  8  9  10  11  12  22  25  29  30  31  32 0
 6-311+G(2d,p)
 ****
 33  36  37 0
 6-311+G(2d,p)
 ****
 1  2  13  14  15  16  17  18  19  20  21  23  24  26 0
 3-21G
 ****
 27  28  34  35  38  39  40  41  42  43  44  45  46  47  48 0
 3-21G
 ****


