%nproc=1
%NoSave
%Mem=1900MB
#P OB98/GEN NMR

erre ene a

0 1
  C     -383.304     289.292     324.669
  O     -383.485     290.192     323.572
  P     -383.202     291.753     323.789
  C     -382.230     292.188     321.439
  O     -383.256     292.502     322.369
  C     -382.591     292.672     320.028
  O     -383.541     291.746     319.414
  C     -383.240     294.071     320.015
  O     -382.620     294.967     319.090
  C     -384.711     293.789     319.775
  O     -385.403     294.891     319.218
  C     -384.676     292.497     318.943
  N     -385.933     291.738     319.045
  C     -386.914     292.023     318.115
  O     -386.815     292.916     317.272
  N     -388.064     291.291     318.211
  C     -388.350     290.370     319.183
  O     -389.416     289.776     319.259
  C     -387.290     290.158     320.192
  C     -386.147     290.841     320.070
  O     -382.012     292.090     324.628
  O     -384.551     292.270     324.499
  H     -385.022     295.083     318.331
  H     -384.303     292.932     325.172
  H     -388.790     291.470     317.529
  H     -387.492     289.456     320.987
  H     -385.358     290.707     320.801
  H     -384.529     292.717     317.884
  H     -385.186     293.569     320.741
  H     -383.118     294.569     320.989
  H     -381.678     292.669     319.427
  H     -382.078     291.105     321.409
  H     -381.287     292.618     321.779
  P     -381.830     296.290     319.499
  C     -379.703     296.051     318.030
  O     -380.920     296.743     318.264
  O     -381.116     296.246     320.821
  O     -382.973     297.402     319.531
  H     -382.834     297.997     320.291
  H     -379.044     296.673     317.432
  H     -379.914     295.124     317.479
  H     -379.192     295.798     318.979
  H     -383.534     288.296     324.355
  H     -383.954     289.572     325.471
  H     -382.288     289.335     325.002

 3  4  5  6  7  8  9  10  11  12  13  23  28  29  30  31  32 0
 6-311+G(2d,p)
 ****
 33  34 0
 6-311+G(2d,p)
 ****
 1  2  14  15  16  17  18  19  20  21  22  24  25  26  27 0
 3-21G
 ****
 35  36  37  38  39  40  41  42  43  44  45 0
 3-21G
 ****


