%nproc=1
%NoSave
%Mem=1900MB
#P OB98/GEN NMR

erre ene a

0 1
  C      128.381      49.595     -73.037
  O      127.132      50.208     -72.798
  H      128.212      48.629     -73.520
  H      128.904      49.428     -72.091
  H      128.992      50.218     -73.696
  P      127.146      51.663     -72.111
  C      127.783      53.412     -73.934
  O      126.743      52.683     -73.291
  C      127.192      54.473     -74.867
  O      126.216      53.850     -75.740
  C      126.494      55.617     -74.124
  O      126.843      56.862     -74.732
  C      125.013      55.324     -74.300
  O      124.217      56.507     -74.222
  C      124.992      54.605     -75.654
  N      123.824      53.731     -75.791
  C      122.573      54.356     -75.842
  O      122.490      55.585     -75.764
  N      121.448      53.578     -75.925
  C      121.555      52.284     -75.897
  N      120.397      51.567     -75.962
  C      122.850      51.581     -75.796
  C      123.932      52.358     -75.750
  O      128.706      51.938     -71.890
  O      126.325      51.790     -70.872
  H      123.277      56.249     -74.359
  H      128.855      52.704     -71.284
  H      122.886      50.502     -75.757
  H      124.926      51.930     -75.672
  H      124.985      55.331     -76.481
  H      124.682      54.641     -73.509
  H      126.755      55.656     -73.065
  H      127.996      54.852     -75.513
  H      119.529      52.082     -76.021
  H      128.399      52.718     -74.510
  H      120.358      50.557     -75.920
  H      128.404      53.896     -73.172
  P      127.349      58.016     -73.735
  C      129.943      57.941     -73.688
  O      128.780      58.520     -74.265
  O      127.697      57.221     -72.389
  O      126.344      59.098     -73.512
  H      126.966      57.301     -71.748
  H      130.815      58.370     -74.136
  H      129.938      56.885     -73.859
  H      129.952      58.132     -72.635

 6  7  8  9  10  11  12  13  14  15  16  26  30  31  32  33  35 0
 6-311+G(2d,p)
 ****
 37  38 0
 6-311+G(2d,p)
 ****
 1  2  3  4  5  17  18  19  20  21  22  23  24  25 0
 3-21G
 ****
 27  28  29  34  36  39  40  41  42  43  44  45  46 0
 3-21G
 ****


