%nproc=1
%NoSave
%Mem=1900MB
#P OB98/GEN NMR

erre ene a

0 1
  C     -391.886     342.259    -298.824
  O     -391.537     343.645    -298.832
  P     -390.974     344.254    -297.456
  C     -392.009     346.511    -296.684
  O     -391.088     345.855    -297.543
  C     -392.625     347.716    -297.403
  O     -391.637     348.456    -298.153
  C     -393.696     347.334    -298.416
  O     -394.905     346.973    -297.767
  C     -393.781     348.613    -299.237
  O     -394.572     349.605    -298.554
  C     -392.312     349.069    -299.279
  N     -391.952     349.984    -304.301
  C     -392.725     350.522    -303.339
  N     -392.766     350.222    -302.020
  C     -391.871     349.263    -301.729
  C     -391.009     348.615    -302.601
  C     -391.072     349.017    -303.950
  N     -390.286     348.453    -304.930
  N     -390.243     347.686    -301.932
  C     -390.655     347.747    -300.681
  N     -391.629     348.692    -300.508
  O     -389.403     343.972    -297.545
  O     -391.583     343.639    -296.239
  H     -394.473     349.435    -297.593
  H     -389.154     343.273    -296.916
  H     -393.413     351.300    -303.665
  H     -390.277     347.132    -299.871
  H     -392.210     350.153    -299.173
  H     -394.230     348.463    -300.225
  H     -393.352     346.505    -299.043
  H     -393.051     348.384    -296.640
  H     -391.509     346.846    -295.775
  H     -390.444     348.735    -305.889
  H     -389.694     347.668    -304.701
  H     -392.784     345.797    -296.383
  P     -395.546     345.547    -298.129
  C     -398.087     345.893    -298.390
  O     -397.027     345.628    -297.493
  O     -394.781     344.576    -297.129
  O     -395.493     345.183    -299.577
  H     -394.739     344.946    -296.223
  H     -399.026     345.889    -297.833
  H     -398.126     345.123    -299.168
  H     -397.950     346.876    -298.846
  H     -392.245     341.976    -299.791
  H     -392.651     342.088    -298.096
  H     -391.023     341.675    -298.579

 3  4  5  6  7  8  9  10  11  12  22  25  29  30  31  32 0
 6-311+G(2d,p)
 ****
 33  36  37 0
 6-311+G(2d,p)
 ****
 1  2  13  14  15  16  17  18  19  20  21  23  24  26 0
 3-21G
 ****
 27  28  34  35  38  39  40  41  42  43  44  45  46  47  48 0
 3-21G
 ****


