%nproc=1
%NoSave
%Mem=1900MB
#P OB98/GEN NMR

erre ene a

0 1
  C      -89.630      -4.053      10.260
  O      -88.252      -3.907       9.995
  H      -89.775      -4.103      11.342
  H      -89.995      -4.982       9.812
  H      -90.202      -3.208       9.869
  P      -87.792      -3.452       8.532
  C      -87.758      -0.883       8.777
  O      -86.988      -2.072       8.694
  C      -87.176       0.081       9.818
  O      -87.117      -0.575      11.107
  C      -85.740       0.463       9.447
  O      -85.386       1.757       9.928
  C      -84.913      -0.583      10.179
  O      -83.566      -0.176      10.399
  C      -85.732      -0.759      11.456
  N      -82.947      -3.618      14.624
  C      -82.699      -2.346      14.149
  N      -81.546      -1.768      14.554
  N      -83.501      -1.707      13.338
  C      -84.577      -2.436      12.958
  C      -84.918      -3.713      13.340
  C      -84.044      -4.395      14.270
  O      -84.204      -5.531      14.710
  N      -86.076      -4.128      12.730
  C      -86.432      -3.108      11.975
  N      -85.560      -2.050      12.090
  O      -89.155      -2.979       7.834
  O      -87.094      -4.498       7.716
  H      -83.590       0.643      10.928
  H      -89.084      -3.051       6.866
  H      -82.305      -4.059      15.259
  H      -87.306      -3.081      11.336
  H      -85.465       0.008      12.196
  H      -84.882      -1.487       9.564
  H      -80.822      -2.284      15.030
  H      -85.570       0.426       8.371
  H      -81.210      -0.978      13.996
  H      -87.827       0.954       9.934
  H      -88.774      -1.175       9.066
  H      -87.820      -0.401       7.799
  P      -84.358       2.619       9.050
  C      -86.138       4.206       7.956
  O      -85.014       4.061       8.804
  O      -84.408       1.914       7.616
  O      -82.976       2.659       9.611
  H      -83.599       1.388       7.471
  H      -86.427       5.236       7.920
  H      -86.949       3.621       8.336
  H      -85.887       3.871       6.971

 6  7  8  9  10  11  12  13  14  15  26  29  33  34 0
 6-311+G(2d,p)
 ****
 36  38  39  40  41 0
 6-311+G(2d,p)
 ****
 1  2  3  4  5  16  17  18  19  20  21  22  23  24  25 0
 3-21G
 ****
 27  28  30  31  32  35  37  42  43  44  45  46  47 0
 3-21G
 ****
 48  49 0
 3-21G
 ****


