%nproc=1
%NoSave
%Mem=1900MB
#P OB98/GEN NMR

erre ene a

0 1
  C     1827.637     231.155    1343.062
  O     1828.737     230.749    1343.842
  H     1826.777     231.353    1343.712
  H     1827.358     230.353    1342.363
  H     1827.886     232.062    1342.500
  P     1830.070     230.299    1343.068
  C     1831.464     232.387    1343.716
  O     1830.850     231.642    1342.675
  C     1832.986     232.381    1343.529
  O     1833.315     232.864    1342.170
  C     1833.741     233.307    1344.463
  O     1833.907     232.745    1345.762
  C     1835.069     233.461    1343.725
  O     1835.958     232.375    1344.018
  C     1834.634     233.452    1342.240
  N     1834.664     234.781    1341.654
  C     1835.773     235.076    1340.875
  O     1836.691     234.257    1340.684
  N     1835.830     236.358    1340.371
  C     1834.910     237.343    1340.585
  O     1835.068     238.479    1340.147
  C     1833.766     236.982    1341.423
  C     1833.695     235.746    1341.948
  O     1829.515     229.759    1341.664
  O     1830.894     229.282    1343.775
  H     1829.556     228.778    1341.649
  H     1836.254     232.511    1344.942
  H     1836.625     236.565    1339.796
  H     1833.045     237.737    1341.651
  H     1832.854     235.471    1342.572
  H     1835.297     232.798    1341.649
  H     1835.560     234.384    1344.013
  H     1833.237     234.295    1344.520
  H     1833.348     231.339    1343.615
  H     1831.251     231.954    1344.705
  H     1831.079     233.413    1343.710
  P     1833.511     233.642    1347.029
  C     1831.639     231.978    1347.875
  O     1831.980     233.261    1347.378
  O     1833.407     235.092    1346.342
  O     1834.472     233.517    1348.161
  H     1833.195     235.053    1345.389
  H     1830.583     231.929    1348.041
  H     1832.153     231.804    1348.797
  H     1831.923     231.232    1347.162

 6  7  8  9  10  11  12  13  14  15  16  27  31  32  33  34  35 0
 6-311+G(2d,p)
 ****
 36  37 0
 6-311+G(2d,p)
 ****
 1  2  3  4  5  17  18  19  20  21  22  23  24  25 0
 3-21G
 ****
 26  28  29  30  38  39  40  41  42  43  44  45 0
 3-21G
 ****


