%nproc=1
%NoSave
%Mem=1900MB
#P OB98/GEN NMR

erre ene a

0 1
  C      -42.316    -890.384     793.644
  O      -42.979    -891.583     793.993
  H      -41.261    -890.602     793.470
  H      -42.397    -889.662     794.461
  H      -42.747    -889.964     792.731
  P      -44.556    -891.483     794.273
  C      -44.511    -893.073     796.331
  O      -44.976    -892.843     795.001
  C      -45.599    -893.773     797.147
  O      -46.684    -892.843     797.383
  C      -46.231    -894.953     796.448
  O      -45.422    -896.123     796.512
  C      -47.542    -895.093     797.211
  O      -47.372    -895.823     798.430
  C      -47.891    -893.633     797.507
  N      -52.760    -894.123     796.018
  C      -52.059    -894.713     797.005
  N      -50.762    -894.523     797.354
  C      -50.204    -893.573     796.559
  C      -50.795    -892.883     795.521
  C      -52.147    -893.183     795.252
  N      -52.865    -892.603     794.234
  N      -49.885    -892.033     794.920
  C      -48.774    -892.193     795.591
  N      -48.913    -893.123     796.599
  O      -45.192    -891.623     792.807
  O      -44.999    -890.234     794.954
  H      -48.252    -895.883     798.843
  H      -45.428    -890.742     792.467
  H      -52.595    -895.453     797.594
  H      -47.840    -891.683     795.396
  H      -48.277    -893.493     798.526
  H      -48.294    -895.603     796.606
  H      -46.457    -894.713     795.396
  H      -45.176    -894.073     798.125
  H      -44.252    -892.113     796.800
  H      -43.606    -893.703     796.285
  H      -53.797    -892.913     794.062
  H      -52.376    -891.983     793.589
  P      -44.781    -896.673     795.155
  C      -45.909    -898.943     795.816
  O      -44.787    -898.273     795.246
  O      -43.231    -896.293     795.272
  O      -45.397    -896.123     793.917
  H      -42.879    -896.063     794.394
  H      -45.742    -900.000     795.795
  H      -46.788    -898.710     795.252
  H      -46.039    -898.623     796.829

 6  7  8  9  10  11  12  13  14  15  25  28  32  33  34  35 0
 6-311+G(2d,p)
 ****
 36  37  40 0
 6-311+G(2d,p)
 ****
 1  2  3  4  5  16  17  18  19  20  21  22  23  24 0
 3-21G
 ****
 26  27  29  30  31  38  39 41  42  43  44  45  46  47  48 0
 3-21G
 ****


