%nproc=1
%NoSave
%Mem=1900MB
#P OB98/GEN NMR

erre ene a

0 1
  C      162.877    -450.415    -354.416
  O      163.368    -451.484    -353.630
  H      163.680    -449.693    -354.570
  H      162.053    -449.920    -353.899
  H      162.540    -450.783    -355.391
  P      162.362    -452.707    -353.358
  C      163.801    -454.356    -354.752
  O      162.542    -453.720    -354.593
  C      163.961    -454.902    -356.167
  O      163.823    -453.804    -357.120
  C      165.312    -455.580    -356.438
  O      165.092    -456.670    -357.341
  C      166.091    -454.501    -357.184
  O      167.162    -455.036    -357.951
  C      164.959    -453.878    -358.005
  N      166.812    -451.491    -362.030
  C      166.512    -452.824    -361.836
  N      166.737    -453.653    -362.881
  N      166.032    -453.304    -360.724
  C      165.821    -452.357    -359.777
  C      166.076    -451.006    -359.842
  C      166.639    -450.491    -361.076
  O      166.939    -449.324    -361.294
  N      165.757    -450.389    -358.660
  C      165.303    -451.360    -357.890
  N      165.317    -452.570    -358.523
  O      160.928    -452.046    -353.619
  O      162.457    -453.325    -352.003
  H      166.878    -455.908    -358.292
  H      160.546    -451.723    -352.779
  H      167.193    -451.177    -362.904
  H      164.949    -451.238    -356.862
  H      164.679    -454.490    -358.865
  H      166.505    -453.774    -356.468
  H      167.064    -453.345    -363.782
  H      165.830    -455.939    -355.540
  H      166.485    -454.633    -362.768
  H      163.128    -455.593    -356.366
  H      163.873    -455.183    -354.036
  H      164.596    -453.634    -354.535
  P      164.731    -458.100    -356.714
  C      162.316    -457.922    -357.661
  O      163.142    -458.186    -356.541
  O      165.251    -457.973    -355.205
  O      165.373    -459.263    -357.418
  H      165.496    -458.849    -354.858
  H      161.289    -458.021    -357.378
  H      162.540    -458.619    -358.441
  H      162.495    -456.926    -358.010

 6  7  8  9  10  11  12  13  14  15  26  29  33  34 0
 6-311+G(2d,p)
 ****
 36  38  39  40  41 0
 6-311+G(2d,p)
 ****
 1  2  3  4  5  16  17  18  19  20  21  22  23  24  25 0
 3-21G
 ****
 27  28  30  31  32  35  37  42  43  44  45  46  47 0
 3-21G
 ****
 48  49 0
 3-21G
 ****


