%nproc=1
%NoSave
%Mem=1900MB
#P OB98/GEN NMR

erre ene a

0 1
  C      676.385     365.511    -200.714
  O      677.024     365.111    -199.506
  P      676.352     365.393    -198.077
  C      678.203     367.082    -197.499
  O      676.812     366.882    -197.692
  C      678.510     368.575    -197.331
  O      678.098     369.261    -198.536
  C      677.753     369.274    -196.195
  O      678.361     369.149    -194.921
  C      677.846     370.725    -196.660
  O      679.154     371.253    -196.349
  C      677.670     370.595    -198.174
  N      673.980     374.059    -198.967
  C      675.273     374.186    -198.574
  N      676.189     373.209    -198.361
  C      675.661     372.002    -198.655
  C      674.375     371.720    -199.065
  C      673.506     372.826    -199.223
  N      672.197     372.694    -199.647
  N      674.199     370.359    -199.237
  C      675.375     369.841    -198.946
  N      676.295     370.790    -198.590
  O      676.618     364.350    -197.053
  O      674.793     365.564    -198.401
  H      679.144     372.192    -196.612
  H      674.276     365.481    -197.581
  H      675.618     375.195    -198.383
  H      675.602     368.786    -198.974
  H      678.295     371.302    -198.733
  H      677.115     371.379    -196.156
  H      676.699     368.975    -196.171
  H      679.595     368.699    -197.213
  H      678.733     366.709    -198.388
  H      671.701     373.548    -199.851
  H      671.898     371.796    -199.992
  H      678.543     366.512    -196.631
  P      677.385     368.885    -193.666
  C      677.443     371.331    -192.725
  O      676.702     370.299    -193.338
  O      678.032     368.211    -192.509
  O      676.194     368.041    -194.316
  H      675.641     368.520    -194.958
  H      676.855     372.253    -192.743
  H      678.380     371.507    -193.257
  H      677.649     371.063    -191.677
  H      676.994     365.232    -201.549
  H      676.249     366.572    -200.711
  H      675.433     365.029    -200.790

 3  4  5  6  7  8  9  10  11  12  22  25  29  30  31  32 0
 6-311+G(2d,p)
 ****
 33  36  37 0
 6-311+G(2d,p)
 ****
 1  2  13  14  15  16  17  18  19  20  21  23  24  26 0
 3-21G
 ****
 27  28  34  35  38  39  40  41  42  43  44  45  46  47  48 0
 3-21G
 ****


