%nproc=1
%NoSave
%Mem=1900MB
#P OB98/GEN NMR

erre ene a

0 1
  C      443.335    -514.630     159.386
  O      444.644    -514.956     158.918
  P      444.990    -516.501     158.634
  C      443.366    -518.384     157.938
  O      443.889    -517.089     157.627
  C      442.233    -518.757     156.968
  O      441.162    -517.778     157.086
  C      442.634    -518.762     155.485
  O      443.144    -519.966     154.925
  C      441.275    -518.520     154.809
  O      440.560    -519.766     154.696
  C      440.544    -517.599     155.790
  N      438.370    -513.957     152.924
  C      438.080    -515.271     153.092
  N      438.709    -516.167     153.876
  C      439.734    -515.600     154.539
  C      440.145    -514.278     154.466
  C      439.417    -513.434     153.605
  N      439.716    -512.104     153.419
  N      441.234    -514.061     155.273
  C      441.484    -515.242     155.820
  N      440.598    -516.197     155.415
  O      445.266    -517.334     159.839
  O      446.282    -516.394     157.701
  H      439.813    -519.596     154.090
  H      446.896    -517.116     157.925
  H      437.231    -515.640     152.537
  H      442.307    -515.444     156.504
  H      439.492    -517.861     155.899
  H      441.378    -518.116     153.800
  H      443.307    -517.930     155.258
  H      441.829    -519.745     157.250
  H      442.987    -518.382     158.960
  H      439.172    -511.589     152.753
  H      440.527    -511.715     153.873
  H      444.194    -519.088     157.906
  P      444.727    -520.210     154.800
  C      446.653    -520.136     156.576
  O      445.276    -520.291     156.305
  O      445.455    -519.240     153.918
  O      444.806    -521.727     154.301
  H      444.524    -522.382     154.969
  H      446.781    -520.007     157.656
  H      447.043    -519.243     156.066
  H      447.199    -521.020     156.254
  H      443.260    -513.572     159.527
  H      443.155    -515.128     160.316
  H      442.610    -514.946     158.666

 3  4  5  6  7  8  9  10  11  12  22  25  29  30  31  32 0
 6-311+G(2d,p)
 ****
 33  36  37 0
 6-311+G(2d,p)
 ****
 1  2  13  14  15  16  17  18  19  20  21  23  24  26 0
 3-21G
 ****
 27  28  34  35  38  39  40  41  42  43  44  45  46  47  48 0
 3-21G
 ****


