%nproc=1
%NoSave
%Mem=1900MB
#P OB98/GEN NMR

erre ene a

0 1
  C      133.180     -47.205     139.356
  O      134.018     -46.169     139.880
  P      135.510     -46.604     140.298
  C      135.762     -44.400     141.649
  O      136.327     -45.274     140.680
  C      136.237     -42.957     141.463
  O      137.567     -42.818     142.021
  C      136.311     -42.489     140.004
  O      135.918     -41.109     139.947
  C      137.795     -42.552     139.689
  O      138.152     -41.697     138.607
  C      138.379     -42.149     141.042
  N      143.165     -40.537     140.757
  C      141.986     -39.825     140.653
  N      142.100     -38.500     140.416
  N      140.801     -40.364     140.770
  C      140.839     -41.692     141.038
  C      141.941     -42.505     141.176
  C      143.245     -41.901     141.001
  O      144.324     -42.488     141.030
  N      141.578     -43.802     141.444
  C      140.261     -43.773     141.462
  N      139.767     -42.518     141.213
  O      136.154     -47.072     138.909
  O      135.555     -47.696     141.313
  H      137.657     -42.006     137.825
  H      136.482     -47.988     138.985
  H      144.049     -40.076     140.638
  H      139.619     -44.628     141.622
  H      138.291     -41.069     141.209
  H      138.066     -43.580     139.421
  H      142.981     -38.011     140.379
  H      135.706     -43.078     139.309
  H      141.248     -37.954     140.381
  H      135.574     -42.302     142.039
  H      136.040     -44.743     142.650
  H      134.670     -44.451     141.571
  P      134.376     -40.821     139.614
  C      134.989     -38.720     138.207
  O      134.279     -39.250     139.310
  O      133.655     -40.978     141.035
  O      133.794     -41.725     138.578
  H      132.724     -41.243     140.914
  H      135.381     -39.502     137.553
  H      135.821     -38.117     138.579
  H      134.318     -38.081     137.629
  H      132.220     -46.799     139.115
  H      133.068     -47.977     140.088
  H      133.626     -47.613     138.473

 3  4  5  6  7  8  9  10  11  12  23  26  30  31  33  0
 6-311+G(2d,p)
 ****
 35  36  37  38 0
 6-311+G(2d,p)
 ****
 1  2  13  14  15  16  17  18  19  20  21  22  24  25  27  28  29 0
 3-21G
 ****
 32  34  39  40  41  42  43  44  45  46  47  48  49 0
 3-21G
 ****


