%nproc=1
%NoSave
%Mem=1900MB
#P OB98/GEN NMR

erre ene a

0 1
  C      125.626     343.809     274.792
  O      125.476     343.594     276.184
  P      124.504     342.414     276.671
  C      122.105     343.395     277.036
  O      123.375     343.080     277.587
  C      121.187     343.946     278.127
  O      120.814     342.913     279.065
  C      121.827     345.037     278.981
  O      121.830     346.296     278.298
  C      120.954     345.021     280.221
  O      119.768     345.810     280.026
  C      120.615     343.524     280.348
  N      121.377     342.863     281.398
  C      120.841     342.920     282.684
  O      119.792     343.504     282.934
  N      121.565     342.303     283.659
  C      122.774     341.693     283.504
  O      123.403     341.213     284.443
  C      123.319     341.699     282.143
  C      122.604     342.266     281.170
  O      125.391     341.567     277.691
  O      123.955     341.566     275.563
  H      120.036     346.748     280.039
  H      125.170     340.615     277.621
  H      121.173     342.308     284.605
  H      124.285     341.228     281.980
  H      122.998     342.298     280.143
  H      119.543     343.401     280.567
  H      121.474     345.444     281.094
  H      122.857     344.754     279.248
  H      120.270     344.330     277.650
  H      121.662     342.478     276.607
  H      122.232     344.124     276.232
  P      123.244     347.058     278.185
  C      123.122     347.423     280.771
  O      123.315     347.988     279.484
  O      122.936     348.069     276.965
  O      124.392     346.136     277.935
  H      121.993     348.352     276.955
  H      123.526     346.399     280.829
  H      122.049     347.398     280.989
  H      123.617     348.029     281.504
  H      126.300     344.623     274.628
  H      124.674     344.042     274.362
  H      126.017     342.924     274.335

 3  4  5  6  7  8  9  10  11  12  13  23  28  29  30  31  32 0
 6-311+G(2d,p)
 ****
 33  34 0
 6-311+G(2d,p)
 ****
 1  2  14  15  16  17  18  19  20  21  22  24  25  26 0
 3-21G
 ****
 27  35  36  37  38  39  40  41  42  43  44  45 0
 3-21G
 ****


