%nproc=1
%NoSave
%Mem=1900MB
#P OB98/GEN NMR

erre ene a

0 1
  C     -866.187     503.802    -136.595
  O     -866.300     503.732    -135.183
  H     -866.266     502.789    -137.000
  H     -865.211     504.213    -136.875
  H     -866.986     504.416    -137.020
  P     -866.310     505.101    -134.344
  C     -863.929     504.624    -133.494
  O     -865.278     504.906    -133.132
  C     -863.054     504.500    -132.248
  O     -862.973     505.800    -131.600
  C     -863.585     503.499    -131.218
  O     -862.467     502.814    -130.629
  C     -864.251     504.374    -130.176
  O     -864.290     503.764    -128.886
  C     -863.392     505.630    -130.231
  N     -864.109     508.732    -126.300
  C     -863.221     507.695    -126.464
  N     -862.419     507.412    -125.412
  N     -863.130     506.985    -127.556
  C     -863.988     507.381    -128.531
  C     -864.912     508.398    -128.487
  C     -865.014     509.167    -127.270
  O     -865.790     510.101    -127.071
  N     -865.613     508.472    -129.675
  C     -865.111     507.504    -130.423
  N     -864.125     506.807    -129.767
  O     -867.665     505.584    -133.928
  O     -865.567     506.152    -135.299
  H     -863.392     503.414    -128.707
  H     -866.221     506.714    -135.760
  H     -864.146     509.245    -125.429
  H     -865.417     507.262    -131.430
  H     -862.492     505.556    -129.597
  H     -865.290     504.596    -130.484
  H     -862.425     507.922    -124.543
  H     -864.277     502.768    -131.649
  H     -861.738     506.661    -125.513
  H     -862.038     504.243    -132.557
  H     -863.562     505.444    -134.123
  H     -863.901     503.689    -134.073
  P     -861.983     501.433    -131.279
  C     -862.613     499.860    -129.337
  O     -861.555     500.440    -130.090
  O     -860.986     501.562    -132.392
  O     -863.345     500.780    -131.808
  H     -863.150     500.233    -132.590
  H     -862.205     499.223    -128.580
  H     -863.240     499.286    -129.987
  H     -863.190     500.635    -128.878

 6  7  8  9  10  11  12  13  14  15  26  29  33  34 0
 6-311+G(2d,p)
 ****
 36  38  39  40  41 0
 6-311+G(2d,p)
 ****
 1  2  3  4  5  16  17  18  19  20  21  22  23  24  25 0
 3-21G
 ****
 27  28  30  31  32  35  37  42  43  44  45  46  47 0
 3-21G
 ****
 48  49 0
 3-21G
 ****


