%nproc=1
%NoSave
%Mem=1900MB
#P OB98/GEN NMR

erre ene a

0 1
  C      136.840    -186.562    -105.032
  O      137.107    -186.170    -103.701
  H      137.083    -187.623    -105.135
  H      137.459    -185.994    -105.729
  H      135.782    -186.424    -105.270
  P      136.834    -184.645    -103.284
  C      135.148    -183.521    -101.665
  O      135.614    -184.734    -102.238
  C      134.211    -183.814    -100.497
  O      132.990    -184.441    -100.948
  C      134.772    -184.776     -99.452
  O      135.766    -184.205     -98.622
  C      133.498    -185.099     -98.689
  O      133.151    -183.993     -97.838
  C      132.488    -185.254     -99.850
  N      132.326    -186.646    -100.274
  C      131.272    -187.359     -99.691
  O      130.537    -186.825     -98.857
  N      131.090    -188.676    -100.037
  C      131.906    -189.236    -100.878
  N      131.683    -190.548    -101.182
  C      133.039    -188.530    -101.501
  C      133.187    -187.251    -101.163
  O      136.643    -183.681    -104.411
  O      138.054    -184.267    -102.320
  H      133.921    -183.825     -97.265
  H      137.939    -183.324    -102.041
  H      133.705    -189.050    -102.172
  H      134.000    -186.666    -101.576
  H      131.505    -184.850     -99.573
  H      133.591    -185.982     -98.051
  H      135.138    -185.698     -99.923
  H      133.933    -182.852    -100.047
  H      130.898    -191.006    -100.737
  H      134.638    -182.950    -102.445
  H      132.309    -191.082    -101.768
  H      135.994    -182.937    -101.291
  P      136.813    -185.217     -97.936
  C      139.346    -185.075     -97.315
  O      138.189    -184.406     -97.787
  O      137.105    -186.273     -99.096
  O      136.335    -185.861     -96.674
  H      136.574    -187.081     -98.973
  H      140.165    -184.388     -97.279
  H      139.586    -185.882     -97.976
  H      139.160    -185.460     -96.334

 6  7  8  9  10  11  12  13  14  15  16  26  30  31  32  33  35 0
 6-311+G(2d,p)
 ****
 37  38 0
 6-311+G(2d,p)
 ****
 1  2  3  4  5  17  18  19  20  21  22  23  24  25 0
 3-21G
 ****
 27  28  29  34  36  39  40  41  42  43  44  45  46 0
 3-21G
 ****


