%nproc=1
%NoSave
%Mem=1900MB
#P OB98/GEN NMR

erre ene a

0 1
  C     -515.830     994.698    -335.108
  O     -515.895     996.056    -334.702
  P     -514.619     996.778    -334.036
  C     -514.397     998.339    -336.094
  O     -514.592     998.249    -334.679
  C     -515.276     999.471    -336.655
  O     -516.670     999.095    -336.581
  C     -515.172    1000.791    -335.897
  O     -513.974    1001.472    -336.212
  C     -516.459    1001.472    -336.329
  O     -516.287    1002.061    -337.645
  C     -517.446    1000.292    -336.414
  N     -518.309    1000.208    -335.241
  C     -519.511    1000.901    -335.288
  O     -519.828    1001.561    -336.289
  N     -520.366    1000.823    -334.217
  C     -520.036    1000.131    -333.169
  N     -520.946    1000.029    -332.158
  C     -518.750     999.421    -333.048
  C     -517.939     999.488    -334.105
  O     -513.334     996.020    -334.169
  O     -515.051     997.060    -332.530
  H     -517.157    1002.381    -337.945
  H     -514.859     996.309    -331.912
  H     -518.511     998.876    -332.147
  H     -516.985     998.999    -334.107
  H     -518.061    1000.383    -337.312
  H     -516.774    1002.286    -335.671
  H     -515.202    1000.609    -334.803
  H     -515.003     999.616    -337.710
  H     -521.880    1000.377    -332.368
  H     -514.713     997.392    -336.553
  H     -520.883     999.305    -331.467
  H     -513.347     998.517    -336.311
  P     -513.298    1002.382    -335.069
  C     -511.357    1000.760    -334.516
  O     -511.740    1002.015    -335.070
  O     -513.873    1001.746    -333.715
  O     -513.614    1003.844    -335.194
  H     -514.618    1002.288    -333.367
  H     -510.318    1000.561    -334.791
  H     -511.980     999.956    -334.928
  H     -511.438    1000.777    -333.442
  H     -516.771     994.405    -335.524
  H     -515.607     994.083    -334.261
  H     -515.063     994.582    -335.845

 3  4  5  6  7  8  9  10  11  12  13  23  27  28  29  30  32 0
 6-311+G(2d,p)
 ****
 34  35 0
 6-311+G(2d,p)
 ****
 1  2  14  15  16  17  18  19  20  21  22  24  25  26 0
 3-21G
 ****
 31  33  36  37  38  39  40  41  42  43  44  45  46 0
 3-21G
 ****


