%nproc=1
%NoSave
%Mem=1900MB
#P OB98/GEN NMR

erre ene a

0 1
  C      539.102    1257.734     124.321
  O      539.450    1256.377     124.179
  H      538.086    1257.873     123.935
  H      539.785    1258.359     123.747
  H      539.111    1258.016     125.376
  P      540.923    1255.897     124.614
  C      539.963    1254.373     126.465
  O      540.820    1255.470     126.159
  C      539.703    1254.321     127.989
  O      538.958    1255.527     128.334
  C      538.862    1253.108     128.388
  O      539.457    1252.329     129.431
  C      537.483    1253.692     128.644
  O      536.670    1252.972     129.550
  C      537.785    1255.135     129.087
  N      536.705    1256.078     128.870
  C      535.551    1255.908     129.623
  O      535.364    1255.029     130.465
  N      534.533    1256.803     129.375
  C      534.570    1257.830     128.469
  O      533.643    1258.621     128.305
  C      535.814    1257.957     127.700
  C      536.812    1257.090     127.916
  O      542.019    1256.847     124.284
  O      541.118    1254.507     123.862
  H      535.779    1253.370     129.514
  H      541.694    1254.627     123.087
  H      533.682    1256.693     129.912
  H      535.891    1258.742     126.960
  H      537.741    1257.141     127.368
  H      538.044    1255.146     130.152
  H      536.930    1253.739     127.687
  H      538.768    1252.393     127.551
  H      540.656    1254.345     128.516
  H      540.464    1253.451     126.132
  H      539.011    1254.484     125.932
  P      540.452    1251.115     129.198
  C      542.571    1252.325     130.145
  O      541.934    1251.708     129.049
  O      540.006    1250.110     128.191
  O      540.489    1250.391     130.641
  H      540.605    1249.439     130.467
  H      543.546    1252.654     129.852
  H      542.658    1251.623     130.948
  H      541.992    1253.166     130.467

 6  7  8  9  10  11  12  13  14  15  16  26  31  32  33  34  35 0
 6-311+G(2d,p)
 ****
 36  37 0
 6-311+G(2d,p)
 ****
 1  2  3  4  5  17  18  19  20  21  22  23  24  25 0
 3-21G
 ****
 27  28  29  30  38  39  40  41  42  43  44  45 0
 3-21G
 ****


