%nproc=1
%NoSave
%Mem=1900MB
#P OB98/GEN NMR

erre ene a

0 1
  C       13.353      84.388      -5.319
  O       14.428      84.668      -6.200
  P       14.521      86.149      -6.814
  C       13.017      85.526      -8.837
  O       13.209      86.369      -7.710
  C       12.636      86.345     -10.072
  O       11.346      86.976      -9.837
  C       13.632      87.458     -10.432
  O       13.643      87.556     -11.860
  C       12.985      88.679      -9.802
  O       13.479      89.913     -10.293
  C       11.516      88.388     -10.091
  N        9.174      92.903      -9.588
  C        9.964      92.403     -10.564
  N       10.545      91.187     -10.633
  C       10.232      90.451      -9.554
  C        9.457      90.831      -8.472
  C        8.911      92.124      -8.513
  N        8.112      92.636      -7.511
  N        9.381      89.817      -7.540
  C       10.102      88.839      -8.050
  N       10.617      89.168      -9.273
  O       15.688      86.017      -7.898
  O       14.802      87.229      -5.816
  H       12.978      90.654      -9.899
  H       16.249      86.816      -7.913
  H       10.154      93.068     -11.402
  H       10.290      87.888      -7.573
  H       11.260      88.572     -11.142
  H       13.176      88.665      -8.722
  H       14.649      87.261     -10.079
  H       12.514      85.658     -10.918
  H       12.207      84.821      -8.629
  H        7.939      93.630      -7.538
  H        8.096      92.131      -6.633
  H       13.929      84.947      -9.016
  P       15.053      87.569     -12.626
  C       14.564      90.077     -12.889
  O       15.526      89.101     -12.539
  O       14.572      87.467     -14.150
  O       16.030      86.525     -12.210
  H       13.888      88.129     -14.355
  H       14.984      91.067     -12.691
  H       13.659      89.950     -12.289
  H       14.325      90.001     -13.953
  H       13.417      83.372      -4.990
  H       12.425      84.540      -5.829
  H       13.406      85.041      -4.473

 3  4  5  6  7  8  9  10  11  12  22  25  29  30  31  32 0
 6-311+G(2d,p)
 ****
 33  36  37 0
 6-311+G(2d,p)
 ****
 1  2  13  14  15  16  17  18  19  20  21  23  24  26 0
 3-21G
 ****
 27  28  34  35  38  39  40  41  42  43  44  45  46  47  48 0
 3-21G
 ****


