%nproc=1
%NoSave
%Mem=1900MB
#P OB98/GEN NMR

erre ene a

0 1
  C     -899.270     877.138     -97.862
  O     -898.060     877.539     -97.232
  H     -899.060     876.311     -98.545
  H     -899.690     877.969     -98.432
  H     -900.000     876.807     -97.111
  P     -898.190     878.614     -96.040
  C     -896.390     877.297     -94.737
  O     -896.800     878.557     -95.233
  C     -894.850     877.261     -94.603
  O     -894.380     878.404     -93.837
  C     -894.310     876.020     -93.897
  O     -894.200     874.909     -94.777
  C     -892.930     876.533     -93.475
  O     -892.040     876.507     -94.603
  C     -893.250     877.990     -93.056
  N     -891.350     878.452     -88.377
  C     -890.680     878.304     -89.603
  N     -889.340     878.300     -89.570
  N     -891.320     878.211     -90.743
  C     -892.670     878.229     -90.627
  C     -893.430     878.360     -89.481
  C     -892.730     878.495     -88.215
  O     -893.240     878.652     -87.125
  N     -894.750     878.361     -89.753
  C     -894.820     878.198     -91.059
  N     -893.570     878.111     -91.633
  O     -899.230     877.919     -95.040
  O     -898.650     879.978     -96.446
  H     -892.450     877.051     -95.310
  H     -899.780     878.619     -94.634
  H     -890.820     878.515     -87.521
  H     -895.730     878.157     -91.633
  H     -892.420     878.653     -93.258
  H     -892.480     875.896     -92.711
  H     -888.800     878.322     -88.724
  H     -894.900     875.774     -93.007
  H     -888.820     878.228     -90.448
  H     -894.430     877.344     -95.620
  H     -896.690     876.504     -95.425
  H     -896.830     877.121     -93.741
  P     -894.490     873.440     -94.191
  C     -894.820     872.756     -96.651
  O     -894.250     872.421     -95.403
  O     -896.070     873.451     -94.000
  O     -893.790     873.127     -92.907
  H     -896.340     872.797     -93.322
  H     -894.585     871.996     -97.366
  H     -894.425     873.693     -96.984
  H     -895.882     872.833     -96.549

 6  7  8  9  10  11  12  13  14  15  26  29  33  34 0
 6-311+G(2d,p)
 ****
 36  38  39  40  41 0
 6-311+G(2d,p)
 ****
 1  2  3  4  5  16  17  18  19  20  21  22  23  24  25 0
 3-21G
 ****
 27  28  30  31  32  35  37  42  43  44  45  46  47 0
 3-21G
 ****
 48  49 0
 3-21G
 ****


