%nproc=1
%NoSave
%Mem=1900MB
#P OB98/GEN NMR

erre ene a

0 1
  C      585.842      63.479     320.639
  O      586.453      64.762     320.589
  P      585.637      66.050     320.102
  C      587.756      66.810     318.865
  O      586.718      67.190     319.763
  C      588.863      67.876     318.859
  O      588.365      69.072     318.189
  C      589.316      68.287     320.274
  O      590.724      68.205     320.511
  C      588.711      69.669     320.441
  O      589.333      70.462     321.441
  C      588.759      70.195     319.005
  N      587.888      71.371     318.804
  C      588.430      72.606     319.115
  O      589.575      72.799     319.524
  N      587.568      73.667     318.978
  C      586.237      73.616     318.705
  O      585.526      74.584     318.698
  C      585.721      72.245     318.429
  C      586.563      71.207     318.456
  O      584.543      66.507     321.019
  O      585.120      65.630     318.645
  H      588.844      71.312     321.491
  H      585.830      65.410     318.009
  H      587.936      74.581     319.209
  H      584.668      72.160     318.211
  H      586.204      70.203     318.256
  H      589.774      70.469     318.717
  H      587.654      69.542     320.744
  H      588.884      67.609     321.040
  H      589.706      67.487     318.281
  H      587.347      66.733     317.856
  H      588.149      65.834     319.143
  P      591.419      67.946     321.921
  C      592.733      70.171     321.784
  O      592.778      68.781     321.980
  O      591.547      66.496     322.312
  O      590.465      68.715     322.966
  H      590.498      68.269     323.828
  H      593.699      70.498     321.360
  H      592.603      70.675     322.737
  H      591.932      70.464     321.107
  H      586.552      62.759     320.989
  H      585.508      63.204     319.660
  H      585.006      63.508     321.306

 3  4  5  6  7  8  9  10  11  12  13  23  28  29  30  31  32 0
 6-311+G(2d,p)
 ****
 33  34 0
 6-311+G(2d,p)
 ****
 1  2  14  15  16  17  18  19  20  21  22  24  25  26  27 0
 3-21G
 ****
 35  36  37  38  39  40  41  42  43  44  45 0
 3-21G
 ****


