%nproc=1
%NoSave
%Mem=1900MB
#P OB98/GEN NMR

erre ene a

0 1
  C      732.289    -636.081     874.804
  O      733.096    -635.315     875.671
  H      731.671    -635.408     874.199
  H      731.622    -636.729     875.385
  H      732.902    -636.691     874.133
  P      734.243    -636.093     876.480
  C      733.553    -635.758     878.959
  O      733.565    -636.621     877.838
  C      733.665    -636.573     880.253
  O      732.376    -637.189     880.528
  C      734.704    -637.711     880.182
  O      735.319    -637.826     881.467
  C      733.852    -638.940     879.912
  O      734.465    -640.156     880.310
  C      732.596    -638.602     880.728
  N      731.428    -639.378     880.315
  C      730.877    -640.235     881.247
  O      731.244    -640.337     882.431
  N      729.845    -641.030     880.800
  C      729.350    -641.054     879.528
  O      728.446    -641.795     879.171
  C      729.988    -640.130     878.570
  C      730.989    -639.347     879.008
  O      735.196    -634.902     876.976
  O      734.985    -637.136     875.707
  H      735.888    -634.719     876.312
  H      735.214    -640.321     879.703
  H      729.434    -641.650     881.472
  H      729.635    -640.132     877.552
  H      731.492    -638.667     878.320
  H      732.783    -638.758     881.800
  H      733.613    -639.003     878.848
  H      735.468    -637.562     879.406
  H      733.886    -635.897     881.080
  H      732.599    -635.190     878.979
  H      734.383    -635.042     878.884
  P      736.610    -636.911     881.743
  C      738.774    -638.391     881.642
  O      737.815    -637.593     880.947
  O      736.907    -637.256     883.294
  O      736.360    -635.456     881.467
  H      736.713    -638.186     883.508
  H      739.500    -638.761     880.948
  H      738.279    -639.214     882.113
  H      739.262    -637.796     882.385

 6  7  8  9  10  11  12  13  14  15  16  27  31  32  33  34  35 0
 6-311+G(2d,p)
 ****
 36  37 0
 6-311+G(2d,p)
 ****
 1  2  3  4  5  17  18  19  20  21  22  23  24  25 0
 3-21G
 ****
 26  28  29  30  38  39  40  41  42  43  44  45 0
 3-21G
 ****


