%nproc=1
%NoSave
%Mem=1900MB
#P OB98/GEN NMR

erre ene a

0 1
  C     1380.568     -33.820     194.496
  O     1380.395     -34.212     193.137
  P     1381.576     -35.054     192.445
  C     1381.590     -33.776     190.176
  O     1381.291     -34.992     190.875
  C     1381.668     -34.021     188.680
  O     1382.821     -34.824     188.354
  C     1380.467     -34.784     188.099
  O     1379.358     -33.915     187.872
  C     1381.046     -35.273     186.783
  O     1381.044     -34.211     185.811
  C     1382.493     -35.627     187.193
  N     1384.183     -40.110     185.413
  C     1384.071     -38.904     184.837
  N     1383.598     -37.752     185.362
  C     1383.196     -37.962     186.635
  C     1383.215     -39.143     187.358
  C     1383.756     -40.266     186.697
  N     1383.896     -41.496     187.299
  N     1382.700     -38.960     188.610
  C     1382.386     -37.681     188.679
  N     1382.678     -37.029     187.506
  O     1381.211     -36.570     192.841
  O     1382.959     -34.679     192.886
  H     1380.109     -33.984     185.652
  H     1382.013     -37.124     192.803
  H     1384.406     -38.838     183.800
  H     1381.960     -37.188     189.544
  H     1383.212     -35.370     186.413
  H     1380.479     -36.104     186.359
  H     1380.204     -35.633     188.737
  H     1381.777     -33.052     188.184
  H     1382.563     -33.401     190.524
  H     1384.457     -42.187     186.835
  H     1383.756     -41.552     188.305
  H     1380.814     -33.042     190.425
  P     1377.928     -34.412     188.427
  C     1376.299     -33.959     186.440
  O     1376.851     -33.504     187.670
  O     1377.934     -33.844     189.920
  O     1377.734     -35.883     188.356
  H     1377.331     -34.397     190.475
  H     1375.390     -33.401     186.237
  H     1376.043     -35.035     186.498
  H     1377.014     -33.806     185.633
  H     1379.709     -33.271     194.821
  H     1381.439     -33.204     194.581
  H     1380.686     -34.691     195.106

 3  4  5  6  7  8  9  10  11  12  22  25  29  30  31  32 0
 6-311+G(2d,p)
 ****
 33  36  37 0
 6-311+G(2d,p)
 ****
 1  2  13  14  15  16  17  18  19  20  21  23  24  26 0
 3-21G
 ****
 27  28  34  35  38  39  40  41  42  43  44  45  46  47  48 0
 3-21G
 ****


