%nproc=1
%NoSave
%Mem=1900MB
#P OB98/GEN NMR

erre ene a

0 1
  C      -23.221     -54.478      74.678
  O      -23.314     -54.197      73.276
  P      -24.706     -54.271      72.481
  C      -24.802     -51.793      71.788
  O      -25.413     -52.833      72.546
  C      -25.482     -50.441      72.029
  O      -25.556     -50.150      73.439
  C      -24.771     -49.253      71.390
  O      -25.058     -49.184      70.007
  C      -25.321     -48.096      72.220
  O      -26.623     -47.712      71.746
  C      -25.424     -48.727      73.614
  N      -22.949     -45.020      76.120
  C      -24.085     -45.014      75.390
  N      -24.679     -46.042      74.748
  C      -23.988     -47.179      74.939
  C      -22.812     -47.339      75.654
  C      -22.283     -46.190      76.265
  N      -21.118     -46.196      76.995
  N      -22.384     -48.649      75.605
  C      -23.297     -49.273      74.887
  N      -24.285     -48.428      74.462
  O      -25.587     -55.405      72.892
  O      -24.287     -54.410      70.941
  H      -27.015     -47.124      72.417
  H      -24.984     -54.886      70.453
  H      -24.584     -44.051      75.308
  H      -23.287     -50.329      74.652
  H      -26.323     -48.392      74.144
  H      -24.684     -47.208      72.182
  H      -23.690     -49.332      71.551
  H      -26.512     -50.514      71.658
  H      -24.871     -52.053      70.726
  H      -20.787     -45.323      77.373
  H      -20.591     -47.054      77.069
  H      -23.744     -51.733      72.069
  P      -24.394     -50.234      68.996
  C      -26.606     -50.904      67.884
  O      -25.507     -51.338      68.663
  O      -23.066     -50.775      69.408
  O      -24.287     -49.419      67.621
  H      -23.525     -49.750      67.109
  H      -27.319     -50.377      68.523
  H      -27.096     -51.780      67.451
  H      -26.278     -50.245      67.077
  H      -22.206     -54.369      74.997
  H      -23.547     -55.480      74.863
  H      -23.841     -53.795      75.221

 3  4  5  6  7  8  9  10  11  12  22  25  29  30  31  32 0
 6-311+G(2d,p)
 ****
 33  36  37 0
 6-311+G(2d,p)
 ****
 1  2  13  14  15  16  17  18  19  20  21  23  24  26 0
 3-21G
 ****
 27  28  34  35  38  39  40  41  42  43  44  45  46  47  48 0
 3-21G
 ****


