%nproc=1
%NoSave
%Mem=1900MB
#P OB98/GEN NMR

erre ene a

0 1
  C     -207.110    -228.376     253.196
  O     -207.559    -227.064     252.898
  P     -208.384    -226.861     251.538
  C     -210.257    -225.220     250.783
  O     -209.495    -225.751     251.860
  C     -211.072    -224.016     251.249
  O     -212.132    -224.444     252.119
  C     -210.268    -223.001     252.045
  O     -209.476    -222.204     251.186
  C     -211.378    -222.230     252.755
  O     -211.877    -221.165     251.930
  C     -212.459    -223.320     252.969
  N     -212.580    -223.719     254.361
  C     -213.444    -222.948     255.144
  O     -214.027    -221.983     254.650
  N     -213.587    -223.260     256.474
  C     -212.925    -224.259     256.973
  N     -213.111    -224.530     258.292
  C     -211.990    -225.087     256.182
  C     -211.860    -224.760     254.899
  O     -209.231    -228.212     251.417
  O     -207.547    -226.608     250.326
  H     -211.084    -220.683     251.617
  H     -209.444    -228.407     250.487
  H     -211.462    -225.905     256.650
  H     -211.195    -225.317     254.249
  H     -213.435    -222.955     252.635
  H     -211.026    -221.777     253.685
  H     -209.638    -223.505     252.787
  H     -211.522    -223.542     250.366
  H     -213.753    -223.941     258.807
  H     -210.946    -225.989     250.415
  H     -212.660    -225.297     258.770
  H     -209.578    -224.942     249.970
  P     -208.492    -221.137     251.861
  C     -206.238    -220.185     251.088
  O     -207.105    -221.302     251.076
  O     -208.163    -221.822     253.271
  O     -209.003    -219.743     252.022
  H     -207.641    -221.214     253.825
  H     -205.277    -220.479     250.659
  H     -206.078    -219.835     252.113
  H     -206.663    -219.377     250.483
  H     -206.578    -228.369     254.124
  H     -206.462    -228.717     252.416
  H     -207.952    -229.032     253.273

 3  4  5  6  7  8  9  10  11  12  13  21  23  27  28  29  30  32 0
 6-311+G(2d,p)
 ****
 34  35 0
 6-311+G(2d,p)
 ****
 1  2  14  15  16  17  18  19  20  22  24  25  26 0
 3-21G
 ****
 31  33  36  37  38  39  40  41  42  43  44  45  46 0
 3-21G
 ****


