%nproc=1
%NoSave
%Mem=1900MB
#P OB98/GEN NMR

erre ene a

0 1
  C     -443.008     418.943    -237.036
  O     -443.007     418.191    -238.236
  P     -443.743     418.823    -239.514
  C     -446.209     419.316    -240.189
  O     -445.318     418.793    -239.207
  C     -447.658     418.935    -239.855
  O     -447.831     417.504    -240.071
  C     -448.096     419.240    -238.410
  O     -449.484     419.612    -238.471
  C     -447.909     417.891    -237.740
  O     -448.588     417.779    -236.502
  C     -448.395     416.969    -238.847
  N     -448.786     412.841    -235.838
  C     -449.401     414.052    -235.797
  N     -449.250     415.097    -236.642
  C     -448.368     414.792    -237.612
  C     -447.662     413.616    -237.773
  C     -447.891     412.600    -236.832
  N     -447.270     411.378    -236.864
  N     -446.825     413.696    -238.877
  C     -447.027     414.896    -239.365
  N     -447.973     415.593    -238.655
  O     -443.584     417.678    -240.629
  O     -443.194     420.136    -239.978
  H     -448.080     418.229    -235.801
  H     -443.405     418.070    -241.504
  H     -450.104     414.199    -234.970
  H     -446.530     415.315    -240.236
  H     -449.492     416.974    -238.959
  H     -446.855     417.744    -237.529
  H     -447.512     420.060    -237.960
  H     -448.308     419.445    -240.573
  H     -445.955     418.898    -241.158
  H     -447.354     410.796    -236.040
  H     -446.461     411.292    -237.476
  H     -446.084     420.404    -240.237
  P     -450.082     420.535    -237.294
  C     -451.792     419.903    -235.484
  O     -450.683     419.479    -236.247
  O     -451.404     421.082    -237.997
  O     -449.161     421.591    -236.751
  H     -451.933     420.373    -238.388
  H     -452.162     419.062    -234.892
  H     -452.604     420.247    -236.150
  H     -451.497     420.716    -234.810
  H     -442.485     418.402    -236.275
  H     -444.017     419.113    -236.723
  H     -442.523     419.882    -237.203

 3  4  5  6  7  8  9  10  11  12  22  25  29  30  31  32 0
 6-311+G(2d,p)
 ****
 33  36  37 0
 6-311+G(2d,p)
 ****
 1  2  13  14  15  16  17  18  19  20  21  23  24  26 0
 3-21G
 ****
 27  28  34  35  38  39  40  41  42  43  44  45  46  47  48 0
 3-21G
 ****


