%nproc=1
%NoSave
%Mem=1900MB
#P OB98/GEN NMR

erre ene a

0 1
  C     -160.859     599.423      59.290
  O     -160.982     599.987      58.003
  H     -159.985     598.766      59.303
  H     -161.750     598.833      59.521
  H     -160.726     600.197      60.051
  P     -161.946     601.249      57.803
  C     -163.871     599.833      56.824
  O     -162.951     600.891      56.602
  C     -164.560     599.415      55.519
  O     -165.663     600.311      55.246
  C     -163.586     599.536      54.342
  O     -163.887     598.614      53.299
  C     -163.836     600.951      53.841
  O     -163.431     601.144      52.489
  C     -165.341     601.078      54.071
  N     -166.042     605.647      51.924
  C     -165.425     604.524      51.408
  N     -164.910     604.641      50.163
  N     -165.313     603.393      52.060
  C     -165.806     603.446      53.320
  C     -166.417     604.508      53.952
  C     -166.569     605.739      53.208
  O     -167.092     606.773      53.621
  N     -166.770     604.192      55.242
  C     -166.372     602.944      55.389
  N     -165.793     602.445      54.247
  O     -160.995     602.354      57.139
  O     -162.604     601.767      59.045
  H     -163.618     602.070      52.255
  H     -161.332     603.247      57.322
  H     -166.116     606.485      51.378
  H     -166.480     602.357      56.292
  H     -165.899     600.652      53.227
  H     -163.250     601.640      54.457
  H     -164.820     605.533      49.699
  H     -162.549     599.398      54.649
  H     -164.215     603.942      49.892
  H     -164.980     598.412      55.620
  H     -164.615     600.198      57.540
  H     -163.366     598.982      57.284
  P     -163.452     597.085      53.516
  C     -162.142     596.598      51.296
  O     -163.313     596.411      52.067
  O     -164.762     596.409      54.140
  O     -162.262     596.918      54.392
  H     -164.635     596.246      55.094
  H     -162.239     596.074      50.368
  H     -161.297     596.220      51.833
  H     -162.004     597.642      51.104

 6  7  8  9  10  11  12  13  14  15  26  29  33  34 0
 6-311+G(2d,p)
 ****
 36  38  39  40  41 0
 6-311+G(2d,p)
 ****
 1  2  3  4  5  16  17  18  19  20  21  22  23  24  25 0
 3-21G
 ****
 27  28  30  31  32  35  37  42  43  44  45  46  47 0
 3-21G
 ****
 48  49 0
 3-21G
 ****


