%nproc=1
%NoSave
%Mem=1900MB
#P OB98/GEN NMR

erre ene a

0 1
  C     -274.391     -25.624      54.386
  O     -273.612     -26.503      53.555
  P     -272.367     -27.292      54.202
  C     -273.274     -29.717      53.831
  O     -272.884     -28.708      54.750
  C     -274.064     -30.812      54.555
  O     -275.070     -30.230      55.413
  C     -274.824     -31.754      53.631
  O     -273.969     -32.702      53.018
  C     -275.828     -32.375      54.597
  O     -275.233     -33.461      55.328
  C     -276.139     -31.192      55.535
  N     -277.439     -30.584      55.263
  C     -278.519     -31.082      55.984
  O     -278.428     -32.020      56.774
  N     -279.725     -30.483      55.744
  C     -279.966     -29.503      54.821
  O     -281.074     -29.018      54.636
  C     -278.802     -29.075      54.030
  C     -277.613     -29.632      54.278
  O     -272.130     -26.476      55.565
  O     -271.121     -27.320      53.378
  H     -275.785     -33.596      56.124
  H     -271.191     -26.543      55.825
  H     -280.516     -30.807      56.279
  H     -278.954     -28.318      53.272
  H     -276.745     -29.324      53.702
  H     -276.125     -31.528      56.580
  H     -276.707     -32.776      54.083
  H     -275.367     -31.173      52.875
  H     -273.363     -31.375      55.187
  H     -272.380     -30.158      53.381
  H     -273.879     -29.264      53.039
  P     -273.337     -32.291      51.598
  C     -271.028     -31.986      52.787
  O     -272.026     -31.440      51.950
  O     -274.407     -31.216      51.088
  O     -273.141     -33.459      50.685
  H     -274.793     -30.707      51.820
  H     -270.942     -33.069      52.660
  H     -271.269     -31.760      53.830
  H     -270.069     -31.523      52.537
  H     -275.173     -25.183      53.804
  H     -273.761     -24.853      54.779
  H     -274.818     -26.182      55.193

 3  4  5  6  7  8  9  10  11  12  13  23  28  29  30  31  32 0
 6-311+G(2d,p)
 ****
 33  34 0
 6-311+G(2d,p)
 ****
 1  2  14  15  16  17  18  19  20  21  22  24  25  26 0
 3-21G
 ****
 27  35  36  37  38  39  40  41  42  43  44  45 0
 3-21G
 ****


