%nproc=1
%NoSave
%Mem=1900MB
#P OB98/GEN NMR

erre ene a

0 1
  C      -17.256      52.492    -248.210
  O      -15.962      53.055    -248.119
  P      -15.569      53.981    -246.873
  C      -13.674      52.812    -245.591
  O      -15.078      53.034    -245.676
  C      -13.369      51.317    -245.575
  O      -13.477      50.756    -246.903
  C      -11.960      50.975    -245.116
  O      -11.797      51.152    -243.722
  C      -11.835      49.538    -245.605
  O      -12.475      48.632    -244.693
  C      -12.611      49.595    -246.939
  N      -11.728      49.625    -248.094
  C      -11.417      48.385    -248.663
  O      -11.817      47.344    -248.143
  N      -10.655      48.363    -249.804
  C      -10.143      49.464    -250.261
  N       -9.447      49.386    -251.425
  C      -10.315      50.770    -249.592
  C      -11.129      50.781    -248.538
  O      -16.593      54.996    -246.486
  O      -14.212      54.697    -247.336
  H      -14.296      55.659    -247.185
  H      -12.192      48.895    -243.795
  H       -9.811      51.647    -249.974
  H      -11.331      51.700    -247.998
  H      -13.276      48.729    -247.026
  H      -10.793      49.219    -245.700
  H      -11.237      51.605    -245.651
  H      -14.112      50.825    -244.933
  H       -9.367      48.478    -251.863
  H      -13.303      53.275    -244.673
  H       -9.293      50.196    -252.023
  H      -13.180      53.296    -246.442
  P      -11.076      52.500    -243.240
  C      -12.155      53.114    -240.968
  O      -12.133      53.325    -242.366
  O      -10.948      53.353    -244.590
  O       -9.741      52.297    -242.598
  H      -10.111      53.853    -244.584
  H      -12.652      53.965    -240.494
  H      -11.145      53.023    -240.561
  H      -12.723      52.207    -240.745
  H      -17.329      51.909    -249.104
  H      -17.985      53.275    -248.234
  H      -17.433      51.866    -247.361

 3  4  5  6  7  8  9  10  11  12  13  24  27  28  29  30  32 0
 6-311+G(2d,p)
 ****
 34  35 0
 6-311+G(2d,p)
 ****
 1  2  14  15  16  17  18  19  20  21  22  23  25  26 0
 3-21G
 ****
 31  33  36  37  38  39  40  41  42  43  44  45  46 0
 3-21G
 ****


