%nproc=1
%NoSave
%Mem=1900MB
#P OB98/GEN NMR

erre ene a

0 1
  C     -141.182      37.989     -10.915
  O     -142.030      37.085     -11.591
  H     -141.764      38.511     -10.153
  H     -140.787      38.724     -11.623
  H     -140.354      37.468     -10.428
  P     -141.372      35.946     -12.502
  C     -140.934      34.001     -10.862
  O     -141.786      34.531     -11.865
  C     -141.549      32.754     -10.216
  O     -142.614      33.148      -9.317
  C     -142.179      31.855     -11.285
  O     -142.172      30.482     -10.905
  C     -143.617      32.350     -11.336
  O     -144.519      31.388     -11.875
  C     -143.862      32.685      -9.865
  N     -148.256      33.879      -7.580
  C     -147.594      32.668      -7.621
  N     -148.192      31.634      -6.987
  N     -146.457      32.486      -8.240
  C     -146.014      33.588      -8.892
  C     -146.595      34.835      -8.946
  C     -147.831      35.035      -8.223
  O     -148.474      36.082      -8.167
  N     -145.861      35.697      -9.723
  C     -144.844      34.972     -10.144
  N     -144.885      33.688      -9.655
  O     -139.810      36.037     -12.158
  O     -141.617      36.071     -13.976
  H     -145.403      31.801     -11.906
  H     -139.279      35.690     -12.896
  H     -149.121      33.969      -7.075
  H     -144.054      35.327     -10.796
  H     -144.162      31.787      -9.309
  H     -143.654      33.230     -11.986
  H     -149.142      31.684      -6.652
  H     -141.685      31.959     -12.251
  H     -147.881      30.695      -7.252
  H     -140.800      32.230      -9.613
  H     -140.797      34.784     -10.107
  H     -139.951      33.773     -11.281
  P     -141.109      29.520     -11.624
  C     -138.909      29.841     -10.228
  O     -140.049      29.050     -10.517
  O     -140.282      30.513     -12.565
  O     -141.733      28.403     -12.391
  H     -140.545      30.391     -13.496
  H     -138.327      29.363      -9.468
  H     -139.222      30.805      -9.885
  H     -138.318      29.951     -11.113

 6  7  8  9  10  11  12  13  14  15  26  29  33  34 0
 6-311+G(2d,p)
 ****
 36  38  39  40  41 0
 6-311+G(2d,p)
 ****
 1  2  3  4  5  16  17  18  19  20  21  22  23  24  25 0
 3-21G
 ****
 27  28  30  31  32  35  37  42  43  44  45  46  47 0
 3-21G
 ****
 48  49 0
 3-21G
 ****


