%nproc=1
%NoSave
%Mem=1900MB
#P OB98/GEN NMR

erre ene a

0 1
  C       89.141      44.410      47.161
  O       88.065      44.883      46.377
  H       89.800      45.238      47.436
  H       88.740      43.962      48.075
  H       89.704      43.650      46.613
  P       88.437      45.574      44.977
  C       88.382      48.027      45.835
  O       89.174      46.950      45.353
  C       89.288      49.145      46.338
  O       90.141      48.657      47.396
  C       90.226      49.715      45.281
  O       89.583      50.663      44.446
  C       91.271      50.378      46.163
  O       90.757      51.623      46.673
  C       91.414      49.356      47.299
  N       95.676      47.292      49.236
  C       94.855      48.260      49.693
  N       93.742      48.756      49.116
  C       93.504      48.148      47.944
  C       94.255      47.149      47.346
  C       95.390      46.709      48.049
  N       96.238      45.732      47.578
  N       93.715      46.797      46.123
  C       92.639      47.547      46.006
  N       92.473      48.387      47.075
  O       87.021      46.064      44.411
  O       89.176      44.715      44.006
  H       91.509      52.089      47.083
  H       87.077      46.201      43.447
  H       95.130      48.696      50.651
  H       91.951      47.520      45.171
  H       91.604      49.829      48.270
  H       92.198      50.605      45.633
  H       90.705      48.920      44.694
  H       88.651      49.934      46.761
  H       87.754      47.672      46.658
  H       97.115      45.624      48.065
  H       96.115      45.405      46.631
  H       87.740      48.391      45.027
  P       90.253      50.962      43.019
  C       91.298      53.270      43.613
  O       91.523      51.895      43.318
  O       89.210      51.960      42.330
  O       90.517      49.751      42.187
  H       89.263      51.900      41.357
  H       92.235      53.755      43.788
  H       90.686      53.352      44.487
  H       90.804      53.736      42.786

 6  7  8  9  10  11  12  13  14  15  25  28  32  33  34  35 0
 6-311+G(2d,p)
 ****
 36  39  40 0
 6-311+G(2d,p)
 ****
 1  2  3  4  5  16  17  18  19  20  21  22  23  24 0
 3-21G
 ****
 26  27  29  30  31  37  38  41  42  43  44  45  46  47 0
 3-21G
 ****
 48 0
 3-21G
 ****


