%nproc=1
%NoSave
%Mem=1900MB
#P OB98/GEN NMR

erre ene a

0 1
  C      278.818    -320.413    -773.705
  O      279.553    -321.369    -772.967
  H      278.853    -319.459    -773.176
  H      277.772    -320.734    -773.787
  H      279.249    -320.284    -774.703
  P      279.778    -322.803    -773.662
  C      282.252    -322.100    -774.201
  O      281.013    -322.607    -774.665
  C      283.328    -322.231    -775.271
  O      283.689    -323.633    -775.407
  C      282.891    -321.728    -776.657
  O      284.017    -321.137    -777.304
  C      282.509    -323.008    -777.383
  O      282.572    -322.855    -778.804
  C      283.513    -324.003    -776.791
  N      283.078    -325.393    -776.922
  C      283.597    -326.121    -778.001
  O      284.379    -325.580    -778.791
  N      283.193    -327.416    -778.189
  C      282.294    -327.926    -777.402
  N      281.916    -329.211    -777.651
  C      281.687    -327.191    -776.274
  C      282.123    -325.943    -776.091
  O      278.509    -322.894    -774.636
  O      279.907    -323.941    -772.706
  H      281.855    -322.246    -779.082
  H      278.337    -322.073    -775.123
  H      280.932    -327.655    -775.658
  H      281.738    -325.329    -775.290
  H      284.494    -323.908    -777.281
  H      281.488    -323.303    -777.122
  H      282.069    -321.010    -776.597
  H      284.231    -321.700    -774.934
  H      282.343    -329.675    -778.444
  H      282.568    -322.635    -773.299
  H      281.187    -329.689    -777.142
  H      282.105    -321.045    -773.933
  P      283.835    -319.755    -778.099
  C      284.839    -318.008    -776.473
  O      283.656    -318.558    -777.049
  O      282.845    -319.782    -779.211
  O      285.310    -319.489    -778.671
  H      285.217    -319.149    -779.587
  H      284.574    -317.223    -775.796
  H      285.463    -317.615    -777.248
  H      285.367    -318.773    -775.943

 6  7  8  9  10  11  12  13  14  15  16  26  30  31  32  33  35 0
 6-311+G(2d,p)
 ****
 37  38 0
 6-311+G(2d,p)
 ****
 1  2  3  4  5  17  18  19  20  21  22  23  24  25 0
 3-21G
 ****
 27  28  29  34  36  39  40  41  42  43  44  45  46 0
 3-21G
 ****


