%nproc=1
%NoSave
%Mem=1900MB
#P OB98/GEN NMR

erre ene a

0 1
  C       97.932     612.007     -91.308
  O       97.428     611.776     -90.012
  H       97.248     611.563     -92.039
  H       98.912     611.532     -91.411
  H       98.022     613.076     -91.519
  P       97.959     612.678     -88.804
  C      100.324     613.374     -88.035
  O       99.510     612.335     -88.563
  C      101.798     613.177     -88.392
  O      101.960     613.209     -89.829
  C      102.690     614.280     -87.824
  O      103.148     614.040     -86.499
  C      103.857     614.281     -88.810
  O      104.875     613.339     -88.425
  C      103.204     613.851     -90.131
  N      105.132     616.857     -93.790
  C      105.786     615.939     -92.993
  N      107.117     615.835     -93.177
  N      105.177     615.206     -92.097
  C      103.858     615.489     -91.959
  C      103.113     616.394     -92.679
  C      103.772     617.151     -93.718
  O      103.237     617.967     -94.462
  N      101.809     616.438     -92.232
  C      101.803     615.625     -91.193
  N      102.999     614.967     -91.042
  O       97.256     612.031     -87.517
  O       97.630     614.139     -88.902
  H      104.514     612.436     -88.543
  H       97.090     612.725     -86.852
  H      105.643     617.379     -94.479
  H      100.945     615.441     -90.547
  H      103.822     613.116     -90.663
  H      104.335     615.265     -88.849
  H      107.649     616.438     -93.793
  H      102.194     615.255     -87.881
  H      107.662     615.315     -92.491
  H      102.120     612.181     -88.057
  H      100.191     613.351     -86.955
  H       99.969     614.346     -88.388
  P      103.485     615.259     -85.521
  C      104.939     617.407     -85.924
  O      104.770     616.012     -86.080
  O      104.034     614.515     -84.205
  O      102.344     616.173     -85.212
  H      103.329     614.453     -83.533
  H      105.865     617.706     -86.370
  H      104.950     617.651     -84.882
  H      104.131     617.920     -86.402

 6  7  8  9  10  11  12  13  14  15  26  29  33  34 0
 6-311+G(2d,p)
 ****
 36  38  39  40  41 0
 6-311+G(2d,p)
 ****
 1  2  3  4  5  16  17  18  19  20  21  22  23  24  25 0
 3-21G
 ****
 27  28  30  31  32  35  37  42  43  44  45  46  47 0
 3-21G
 ****
 48  49 0
 3-21G
 ****


