%nproc=1
%NoSave
%Mem=1900MB
#P OB98/GEN NMR

erre ene a

0 1
  C      109.957      -2.313     -34.745
  O      109.521      -1.304     -33.859
  H      109.966      -1.909     -35.759
  H      109.266      -3.160     -34.708
  H      110.966      -2.652     -34.494
  P      109.751      -1.502     -32.287
  C      110.180       1.030     -32.025
  O      109.437      -0.097     -31.580
  C      109.268       2.246     -32.226
  O      108.277       1.947     -33.240
  C      108.503       2.563     -30.936
  O      108.182       3.947     -30.828
  C      107.218       1.766     -31.103
  O      106.149       2.256     -30.297
  C      106.985       1.901     -32.608
  N      103.021       0.579     -35.525
  C      103.405       1.831     -35.092
  N      102.622       2.868     -35.468
  N      104.457       2.048     -34.345
  C      105.105       0.913     -33.984
  C      104.803      -0.385     -34.328
  C      103.660      -0.607     -35.187
  O      103.260      -1.699     -35.587
  N      105.678      -1.274     -33.752
  C      106.503      -0.518     -33.057
  N      106.205       0.820     -33.176
  O      111.344      -1.612     -32.147
  O      109.064      -2.685     -31.675
  H      105.927       3.149     -30.620
  H      111.582      -2.107     -31.344
  H      102.210       0.469     -36.112
  H      107.332      -0.882     -32.458
  H      106.464       2.839     -32.833
  H      107.413       0.735     -30.790
  H      101.716       2.731     -35.889
  H      109.054       2.255     -30.048
  H      102.717       3.732     -34.928
  H      109.851       3.100     -32.593
  H      110.652       0.753     -32.975
  H      110.978       1.261     -31.315
  P      108.429       4.658     -29.413
  C      109.573       6.803     -30.401
  O      108.505       6.238     -29.662
  O      109.934       4.244     -29.048
  O      107.461       4.247     -28.354
  H      109.933       3.563     -28.347
  H      109.446       7.864     -30.457
  H      109.580       6.392     -31.389
  H      110.500       6.580     -29.915

 6  7  8  9  10  11  12  13  14  15  26  29  33  34 0
 6-311+G(2d,p)
 ****
 36  38  39  40  41 0
 6-311+G(2d,p)
 ****
 1  2  3  4  5  16  17  18  19  20  21  22  23  24  25 0
 3-21G
 ****
 27  28  30  31  32  35  37  42  43  44  45  46  47 0
 3-21G
 ****
 48  49 0
 3-21G
 ****


