%nproc=1
%NoSave
%Mem=1900MB
#P OB98/GEN NMR

erre ene a

0 1
  C      444.396    -224.697    -985.393
  O      444.736    -223.545    -986.144
  H      444.391    -224.460    -984.329
  H      443.401    -225.029    -985.690
  H      445.113    -225.497    -985.594
  P      446.152    -222.867    -985.832
  C      447.099    -223.925    -988.003
  O      447.265    -223.732    -986.603
  C      448.109    -224.952    -988.518
  O      449.443    -224.458    -988.250
  C      447.981    -226.348    -987.876
  O      447.769    -227.331    -988.893
  C      449.347    -226.599    -987.249
  O      449.804    -227.942    -987.416
  C      450.261    -225.603    -987.956
  N      454.213    -227.455    -985.328
  C      453.501    -227.969    -986.363
  N      452.529    -227.383    -987.090
  C      452.330    -226.110    -986.675
  C      452.990    -225.448    -985.655
  C      453.970    -226.180    -984.964
  N      454.662    -225.668    -983.880
  N      452.509    -224.153    -985.529
  C      451.546    -224.069    -986.415
  N      451.379    -225.236    -987.122
  O      446.401    -223.227    -984.288
  O      446.221    -221.399    -986.076
  H      450.671    -228.003    -986.973
  H      446.679    -222.427    -983.802
  H      453.733    -228.999    -986.640
  H      450.893    -223.210    -986.560
  H      450.642    -225.993    -988.908
  H      449.281    -226.391    -986.170
  H      447.184    -226.397    -987.130
  H      447.994    -225.028    -989.604
  H      447.269    -222.976    -988.527
  H      455.255    -226.301    -983.367
  H      454.404    -224.764    -983.534
  H      446.075    -224.251    -988.197
  P      447.463    -228.836    -988.381
  C      445.457    -229.086    -990.032
  O      445.898    -229.130    -988.683
  O      447.504    -228.697    -986.793
  O      448.433    -229.851    -988.879
  H      447.739    -229.542    -986.382
  H      444.409    -229.299    -990.072
  H      445.991    -229.814    -990.606
  H      445.638    -228.111    -990.435

 6  7  8  9  10  11  12  13  14  15  25  28  32  33  34  35 0
 6-311+G(2d,p)
 ****
 36  39  40 0
 6-311+G(2d,p)
 ****
 1  2  3  4  5  16  17  18  19  20  21  22  23  24 0
 3-21G
 ****
 26  27  29  30  31  37  38  41  42  43  44  45  46  47  48 0
 3-21G
 ****


