%nproc=1
%NoSave
%Mem=1900MB
#P OB98/GEN NMR

erre ene a

0 1
  C      -40.209     -80.586      67.938
  O      -39.274     -81.459      68.540
  H      -39.708     -79.678      67.592
  H      -40.657     -81.091      67.078
  H      -41.000     -80.328      68.649
  P      -38.522     -80.912      69.848
  C      -36.533     -79.935      68.497
  O      -37.627     -79.671      69.362
  C      -35.787     -78.641      68.185
  O      -36.704     -77.643      67.693
  C      -35.090     -78.003      69.384
  O      -33.850     -78.632      69.669
  C      -34.890     -76.584      68.870
  O      -33.755     -76.544      67.984
  C      -36.184     -76.344      68.079
  N      -37.537     -71.832      70.077
  C      -36.493     -72.199      69.304
  N      -36.210     -73.416      68.793
  C      -37.157     -74.304      69.140
  C      -38.289     -74.076      69.902
  C      -38.467     -72.770      70.390
  N      -39.506     -72.422      71.238
  N      -39.018     -75.239      70.057
  C      -38.325     -76.155      69.415
  N      -37.197     -75.638      68.839
  O      -37.447     -82.064      70.146
  O      -39.401     -80.656      71.026
  H      -33.816     -77.334      67.414
  H      -37.802     -82.664      70.829
  H      -35.784     -71.412      69.067
  H      -38.597     -77.200      69.346
  H      -36.005     -75.781      67.156
  H      -34.701     -75.861      69.669
  H      -35.743     -77.976      70.263
  H      -35.068     -78.852      67.384
  H      -36.902     -80.372      67.564
  H      -39.279     -71.656      71.865
  H      -39.999     -73.211      71.641
  H      -35.865     -80.650      68.986
  P      -33.507     -78.937      71.207
  C      -32.730     -76.474      71.350
  O      -33.479     -77.517      71.958
  O      -31.965     -79.367      71.147
  O      -34.338     -79.994      71.848
  H      -31.855     -80.250      71.548
  H      -32.796     -75.591      71.950
  H      -33.124     -76.273      70.376
  H      -31.706     -76.772      71.266

 6  7  8  9  10  11  12  13  14  15  25  28  32  33  34  35 0
 6-311+G(2d,p)
 ****
 36  39  40 0
 6-311+G(2d,p)
 ****
 1  2  3  4  5  16  17  18  19  20  21  22  23  24 0
 3-21G
 ****
 26  27  29  30  31  37  38  41  42  43  44  45  46  47  48 0
 3-21G
 ****


