%nproc=1
%NoSave
%Mem=1900MB
#P OB98/GEN NMR

erre ene a

0 1
  C     -573.133    -899.084    -893.340
  O     -573.976    -898.034    -893.840
  P     -575.321    -897.654    -893.050
  C     -575.262    -895.074    -892.610
  O     -575.021    -896.384    -892.110
  C     -573.937    -894.354    -892.880
  O     -573.171    -895.044    -893.900
  C     -574.083    -892.934    -893.370
  O     -574.420    -892.034    -892.330
  C     -572.696    -892.684    -893.970
  O     -571.757    -892.284    -892.950
  C     -572.338    -894.054    -894.540
  N     -572.482    -894.114    -896.000
  C     -571.316    -893.924    -896.740
  O     -570.226    -893.654    -896.230
  N     -571.461    -894.004    -898.100
  C     -572.626    -894.204    -898.780
  O     -572.697    -894.264    -900.000
  C     -573.835    -894.344    -897.930
  C     -573.714    -894.284    -896.610
  O     -575.425    -898.844    -891.980
  O     -576.560    -897.574    -893.880
  H     -570.987    -891.904    -893.410
  H     -576.358    -898.984    -891.740
  H     -570.626    -893.904    -898.650
  H     -574.787    -894.474    -898.430
  H     -574.589    -894.374    -895.980
  H     -571.316    -894.314    -894.280
  H     -572.709    -891.874    -894.710
  H     -574.825    -892.904    -894.170
  H     -573.337    -894.374    -891.940
  H     -575.826    -894.514    -891.860
  H     -575.856    -895.134    -893.520
  P     -575.580    -890.964    -892.630
  C     -577.028    -891.494    -890.520
  O     -576.898    -891.554    -891.930
  O     -575.813    -891.224    -894.200
  O     -575.202    -889.554    -892.280
  H     -575.664    -892.134    -894.450
  H     -576.554    -890.594    -890.110
  H     -576.587    -892.394    -890.080
  H     -578.090    -891.484    -890.290
  H     -572.288    -899.201    -893.986
  H     -573.686    -900.000    -893.306
  H     -572.798    -898.834    -892.355

 3  4  5  6  7  8  9  10  11  12  13  23  28  29  30  31  32 0
 6-311+G(2d,p)
 ****
 33  34 0
 6-311+G(2d,p)
 ****
 1  2  14  15  16  17  18  19  20  21  22  24  25  26 0
 3-21G
 ****
 27  35  36  37  38  39  40  41  42  43  44  45 0
 3-21G
 ****


