%nproc=1
%NoSave
%Mem=1900MB
#P OB98/GEN NMR

erre ene a

0 1
  C      -18.094     616.385     477.508
  O      -18.540     615.872     478.745
  H      -18.471     615.746     476.709
  H      -17.004     616.396     477.460
  H      -18.482     617.402     477.347
  P      -18.067     616.602     480.089
  C      -20.352     617.393     481.011
  O      -19.267     616.464     481.147
  C      -21.662     616.751     481.492
  O      -22.141     615.882     480.444
  C      -21.458     615.904     482.766
  O      -22.349     616.261     483.822
  C      -21.520     614.470     482.246
  O      -21.944     613.517     483.196
  C      -22.419     614.589     481.009
  N      -22.216     613.533     480.016
  C      -22.846     612.325     480.244
  O      -23.587     612.061     481.196
  N      -22.609     611.335     479.303
  C      -21.824     611.473     478.188
  O      -21.646     610.565     477.381
  C      -21.164     612.778     478.022
  C      -21.386     613.732     478.932
  O      -17.535     617.988     479.929
  O      -16.952     615.621     480.691
  H      -22.871     613.726     483.427
  H      -16.062     615.976     480.512
  H      -23.065     610.460     479.444
  H      -20.522     612.911     477.172
  H      -20.912     614.712     478.842
  H      -23.478     614.560     481.307
  H      -20.504     614.183     481.919
  H      -20.475     616.091     483.202
  H      -22.401     617.542     481.644
  H      -20.434     617.661     479.942
  H      -20.137     618.299     481.588
  P      -22.223     615.765     485.334
  C      -21.663     618.097     486.390
  O      -22.566     616.998     486.297
  O      -21.008     614.970     485.637
  O      -23.500     614.790     485.500
  H      -23.232     614.083     486.132
  H      -22.052     618.821     487.075
  H      -21.546     618.545     485.425
  H      -20.713     617.750     486.740

 6  7  8  9  10  11  12  13  14  15  16  26  31  32  33  34  35 0
 6-311+G(2d,p)
 ****
 36  37 0
 6-311+G(2d,p)
 ****
 1  2  3  4  5  17  18  19  20  21  22  23  24  25 0
 3-21G
 ****
 27  28  29  30  38  39  40  41  42  43  44  45 0
 3-21G
 ****


