%nproc=1
%NoSave
%Mem=1900MB
#P OB98/GEN NMR

erre ene a

0 1
  C     -470.407     119.230     251.246
  O     -471.339     118.855     252.239
  H     -469.555     118.541     251.285
  H     -470.050     120.245     251.429
  H     -470.861     119.166     250.249
  P     -472.674     119.746     252.352
  C     -474.290     117.733     252.684
  O     -473.701     118.899     253.264
  C     -475.554     117.347     253.455
  O     -475.180     116.995     254.824
  C     -476.608     118.460     253.539
  O     -477.906     117.881     253.439
  C     -476.417     119.011     254.949
  O     -477.589     119.670     255.427
  C     -476.054     117.732     255.697
  N     -476.914     119.092     260.469
  C     -477.800     118.844     259.434
  N     -479.123     118.973     259.704
  N     -477.419     118.489     258.232
  C     -476.080     118.365     258.108
  C     -475.104     118.595     259.053
  C     -475.536     118.996     260.372
  O     -474.803     119.259     261.322
  N     -473.843     118.402     258.524
  C     -474.069     118.047     257.265
  N     -475.405     118.011     256.967
  O     -473.315     119.646     250.886
  O     -472.472     121.158     252.785
  H     -478.258     118.987     255.627
  H     -473.818     120.458     250.673
  H     -477.267     119.363     261.375
  H     -473.298     117.821     256.536
  H     -476.933     117.111     255.917
  H     -475.582     119.723     254.955
  H     -479.493     119.206     260.621
  H     -476.491     119.228     252.767
  H     -479.786     118.782     258.963
  H     -475.969     116.442     252.997
  H     -473.563     116.914     252.721
  H     -474.546     117.950     251.641
  P     -479.015     118.672     252.597
  C     -479.558     116.640     251.065
  O     -480.052     117.605     251.968
  O     -478.202     119.181     251.317
  O     -479.639     119.813     253.331
  H     -478.059     120.139     251.367
  H     -480.361     116.012     250.740
  H     -478.814     116.044     251.551
  H     -479.125     117.132     250.219

 6  7  8  9  10  11  12  13  14  15  26  29  33  34 0
 6-311+G(2d,p)
 ****
 36  38  39  40  41 0
 6-311+G(2d,p)
 ****
 1  2  3  4  5  16  17  18  19  20  21  22  23  24  25 0
 3-21G
 ****
 27  28  30  31  32  35  37  42  43  44  45  46  47 0
 3-21G
 ****
 48  49 0
 3-21G
 ****


