%nproc=1
%NoSave
%Mem=1900MB
#P OB98/GEN NMR

erre ene a

0 1
  C     -295.546    -641.194    -493.613
  O     -294.721    -642.273    -494.027
  P     -295.446    -643.672    -494.333
  C     -294.934    -643.708    -496.893
  O     -295.909    -643.613    -495.864
  C     -295.307    -644.837    -497.860
  O     -296.551    -644.531    -498.520
  C     -294.285    -645.074    -498.961
  O     -293.214    -645.869    -498.487
  C     -295.141    -645.760    -500.022
  O     -295.304    -647.160    -499.724
  C     -296.473    -645.006    -499.889
  N     -298.628    -643.461    -504.196
  C     -298.563    -644.729    -503.638
  N     -299.198    -645.712    -504.305
  N     -297.929    -644.997    -502.525
  C     -297.322    -643.922    -501.979
  C     -297.305    -642.620    -502.440
  C     -298.052    -642.326    -503.637
  O     -298.225    -641.208    -504.119
  N     -296.575    -641.804    -501.619
  C     -296.172    -642.602    -500.647
  N     -296.617    -643.893    -500.805
  O     -296.815    -643.555    -493.509
  O     -294.659    -644.890    -493.968
  H     -295.855    -647.254    -498.927
  H     -296.745    -644.024    -492.660
  H     -299.142    -643.312    -505.042
  H     -295.576    -642.297    -499.800
  H     -297.335    -645.669    -500.055
  H     -294.687    -645.705    -501.019
  H     -299.681    -645.579    -505.179
  H     -293.910    -644.120    -499.353
  H     -299.155    -646.645    -503.924
  H     -295.450    -645.748    -497.269
  H     -293.955    -643.927    -496.442
  H     -294.870    -642.751    -497.418
  P     -291.724    -645.317    -498.693
  C     -291.293    -645.058    -496.139
  O     -291.366    -644.427    -497.411
  O     -291.890    -644.241    -499.866
  O     -290.719    -646.367    -499.047
  H     -291.099    -644.256    -500.442
  H     -290.581    -644.517    -495.523
  H     -290.986    -646.108    -496.227
  H     -292.280    -645.019    -495.669
  H     -294.942    -640.328    -493.443
  H     -296.052    -641.459    -492.708
  H     -296.266    -640.983    -494.376

 3  4  5  6  7  8  9  10  11  12  23  26  30  31 0
 6-311+G(2d,p)
 ****
 33  35  36  37  38 0
 6-311+G(2d,p)
 ****
 1  2  13  14  15  16  17  18  19  20  21  22  24  25 0
 3-21G
 ****
 27  28  29  32  34  39  40  41  42  43  44  45  46  47  48  49 0
 3-21G
 ****


