%nproc=1
%NoSave
%Mem=1900MB
#P OB98/GEN NMR

erre ene a

0 1
  C      276.738     303.316    -342.794
  O      276.230     302.862    -344.030
  H      276.512     302.595    -342.004
  H      277.824     303.418    -342.875
  H      276.311     304.290    -342.542
  P      274.648     302.608    -344.112
  C      273.850     304.775    -345.293
  O      274.114     303.383    -345.416
  C      273.549     305.370    -346.667
  O      272.929     306.665    -346.476
  C      274.782     305.559    -347.568
  O      274.613     304.843    -348.795
  C      274.800     307.049    -347.878
  O      275.151     307.336    -349.230
  C      273.379     307.493    -347.557
  N      274.323     312.224    -349.199
  C      274.082     311.078    -349.873
  N      273.735     309.871    -349.377
  C      273.607     309.927    -348.039
  C      273.792     311.029    -347.220
  C      274.185     312.221    -347.854
  N      274.484     313.375    -347.164
  N      273.580     310.694    -345.895
  C      273.313     309.404    -345.910
  N      273.339     308.892    -347.181
  O      274.073     303.481    -342.897
  O      274.230     301.179    -344.011
  H      274.439     306.968    -349.789
  H      273.446     302.944    -342.376
  H      274.199     311.131    -350.950
  H      273.144     308.786    -345.039
  H      272.698     307.346    -348.406
  H      275.528     307.538    -347.221
  H      275.712     305.247    -347.081
  H      272.810     304.727    -347.163
  H      274.728     305.277    -344.873
  H      274.869     314.145    -347.686
  H      274.488     313.346    -346.154
  H      273.006     304.919    -344.612
  P      275.895     304.042    -349.347
  C      275.459     301.951    -347.858
  O      275.594     302.476    -349.174
  O      277.006     304.330    -348.227
  O      276.343     304.474    -350.703
  H      277.898     304.274    -348.619
  H      275.262     300.901    -347.912
  H      274.649     302.441    -347.360
  H      276.365     302.116    -347.313

 6  7  8  9  10  11  12  13  14  15  25  28  32  33  34  35 0
 6-311+G(2d,p)
 ****
 36  39  40 0
 6-311+G(2d,p)
 ****
 1  2  3  4  5  16  17  18  19  20  21  22  23  24 0
 3-21G
 ****
 26  27  29  30  31  37  38  41  42  43  44  45  46  47  48 0
 3-21G
 ****


