%nproc=1
%NoSave
%Mem=1900MB
#P OB98/GEN NMR

erre ene a

0 1
  C      -10.299    -292.299     178.272
  O      -10.423    -293.669     178.600
  H      -10.966    -292.077     177.436
  H       -9.271    -292.080     177.972
  H      -10.582    -291.675     179.126
  P       -9.660    -294.167     179.922
  C      -10.355    -292.718     181.998
  O      -10.634    -293.812     181.144
  C      -11.332    -292.689     183.176
  O      -12.674    -292.495     182.661
  C      -11.333    -293.973     184.008
  O      -11.547    -293.626     185.377
  C      -12.543    -294.729     183.484
  O      -13.037    -295.673     184.431
  C      -13.499    -293.571     183.155
  N      -14.523    -293.954     182.185
  C      -15.833    -293.554     182.462
  O      -16.084    -292.921     183.490
  N      -16.836    -293.911     181.597
  C      -16.565    -294.660     180.577
  N      -17.605    -295.004     179.769
  C      -15.205    -295.146     180.267
  C      -14.242    -294.751     181.099
  O       -8.484    -293.087     180.048
  O       -9.192    -295.582     179.869
  H      -13.109    -295.229     185.305
  H       -8.782    -292.174     179.900
  H      -15.031    -295.780     179.409
  H      -13.212    -295.053     180.944
  H      -14.000    -293.215     184.063
  H      -12.279    -295.276     182.572
  H      -10.403    -294.540     183.910
  H      -11.102    -291.816     183.798
  H      -18.525    -294.669     180.030
  H      -10.426    -291.775     181.446
  H      -17.523    -295.627     178.980
  H       -9.326    -292.823     182.360
  P      -10.353    -293.783     186.428
  C       -8.216    -292.510     187.143
  O       -9.362    -292.531     186.298
  O       -9.690    -295.117     186.460
  O      -11.080    -293.494     187.834
  H      -10.728    -294.128     188.488
  H       -7.648    -291.624     186.951
  H       -7.612    -293.371     186.946
  H       -8.527    -292.519     188.167

 6  7  8  9  10  11  12  13  14  15  16  26  30  31  32  33  35 0
 6-311+G(2d,p)
 ****
 37  38 0
 6-311+G(2d,p)
 ****
 1  2  3  4  5  17  18  19  20  21  22  23  24  25 0
 3-21G
 ****
 27  28  29  34  36  39  40  41  42  43  44  45  46 0
 3-21G
 ****


