%nproc=1
%NoSave
%Mem=1900MB
#P OB98/GEN NMR

erre ene a

0 1
  C     -895.994      81.544    1556.009
  O     -895.054      80.568    1555.619
  H     -896.184      82.209    1555.162
  H     -895.604      82.133    1556.839
  H     -896.944      81.070    1556.306
  P     -894.704      79.433    1556.696
  C     -894.754      77.335    1555.173
  O     -895.414      78.084    1556.182
  C     -895.424      77.551    1553.817
  O     -895.154      78.921    1553.371
  C     -894.934      76.608    1552.701
  O     -896.054      76.310    1551.849
  C     -893.954      77.465    1551.939
  O     -893.744      77.001    1550.612
  C     -894.644      78.822    1552.017
  N     -893.464      82.168    1548.455
  C     -894.454      81.214    1548.495
  N     -895.264      81.147    1547.416
  N     -894.654      80.401    1549.506
  C     -893.784      80.623    1550.530
  C     -892.764      81.520    1550.617
  C     -892.534      82.393    1549.475
  O     -891.664      83.243    1549.380
  N     -892.084      81.402    1551.805
  C     -892.714      80.430    1552.446
  N     -893.754      79.923    1551.709
  O     -895.574      79.864    1557.965
  O     -893.254      79.299    1557.041
  H     -894.584      77.106    1550.108
  H     -895.054      80.417    1558.568
  H     -893.344      82.766    1547.657
  H     -892.464      80.057    1553.424
  H     -895.504      78.898    1551.330
  H     -892.974      77.491    1552.449
  H     -895.214      81.759    1546.633
  H     -894.494      75.671    1553.069
  H     -896.034      80.478    1547.451
  H     -896.514      77.478    1553.946
  H     -894.814      76.267    1555.429
  H     -893.694      77.634    1555.129
  P     -896.934      75.027    1552.181
  C     -899.244      76.224    1552.409
  O     -898.194      75.503    1553.044
  O     -896.044      74.248    1553.251
  O     -897.254      74.175    1550.994
  H     -896.224      73.285    1553.202
  H     -900.000      76.461    1553.128
  H     -899.668      75.625    1551.631
  H     -898.854      77.128    1551.991

 6  7  8  9  10  11  12  13  14  15  26  29  33  34 0
 6-311+G(2d,p)
 ****
 36  38  39  40  41 0
 6-311+G(2d,p)
 ****
 1  2  3  4  5  16  17  18  19  20  21  22  23  24  25 0
 3-21G
 ****
 27  28  30  31  32  35  37  42  43  44  45  46  47 0
 3-21G
 ****
 48  49 0
 3-21G
 ****


