%nproc=1
%NoSave
%Mem=1900MB
#P OB98/GEN NMR

erre ene a

0 1
  C      673.441     395.414     570.892
  O      674.367     395.588     571.947
  H      673.965     395.274     569.940
  H      672.842     394.528     571.097
  H      672.776     396.278     570.824
  P      675.422     396.788     571.774
  C      677.075     395.324     570.415
  O      676.859     396.109     571.579
  C      678.539     394.913     570.318
  O      679.373     396.078     570.132
  C      679.089     394.211     571.555
  O      678.693     392.844     571.600
  C      680.584     394.363     571.320
  O      681.031     393.354     570.394
  C      680.681     395.755     570.686
  N      683.941     399.623     571.554
  C      683.813     398.763     570.513
  N      682.939     397.756     570.358
  C      682.103     397.682     571.406
  C      682.112     398.478     572.538
  C      683.083     399.489     572.600
  N      683.225     400.351     573.664
  N      681.103     398.111     573.400
  C      680.498     397.103     572.808
  N      681.068     396.797     571.604
  O      675.502     397.423     573.241
  O      675.057     397.814     570.752
  H      681.297     392.586     570.923
  H      675.615     398.389     573.166
  H      684.516     398.915     569.693
  H      679.636     396.577     573.211
  H      681.383     395.757     569.835
  H      681.175     394.250     572.233
  H      678.807     394.745     572.472
  H      678.652     394.282     569.423
  H      676.803     395.910     569.528
  H      683.804     401.165     573.560
  H      682.573     400.250     574.435
  H      676.426     394.441     570.458
  P      677.783     392.377     572.839
  C      679.675     392.359     574.623
  O      678.774     391.591     573.832
  O      676.884     391.218     572.207
  O      676.948     393.452     573.456
  H      676.048     391.125     572.720
  H      680.265     391.704     575.229
  H      679.120     393.023     575.252
  H      680.317     392.927     573.982

 6  7  8  9  10  11  12  13  14  15  25  28  32  33  34  35 0
 6-311+G(2d,p)
 ****
 36  39  40 0
 6-311+G(2d,p)
 ****
 1  2  3  4  5  16  17  18  19  20  21  22  23  24 0
 3-21G
 ****
 26  27  29  30  31  37  38  41  42  43  44  45  46  47  48 0
 3-21G
 ****


