%nproc=1
%NoSave
%Mem=1900MB
#P OB98/GEN NMR

erre ene a

0 1
  C      157.865      64.643     -10.819
  O      159.211      64.345     -11.132
  H      157.811      64.955      -9.774
  H      157.228      63.765     -10.957
  H      157.507      65.466     -11.448
  P      159.519      63.619     -12.532
  C      160.996      65.381     -13.710
  O      159.694      64.807     -13.602
  C      160.911      66.894     -13.949
  O      160.209      67.527     -12.857
  C      162.266      67.584     -14.003
  O      163.028      67.262     -15.148
  C      161.905      69.036     -13.721
  O      161.518      69.761     -14.886
  C      160.691      68.886     -12.772
  N      161.020      69.259     -11.399
  C      161.112      70.625     -11.149
  O      160.948      71.487     -12.019
  N      161.434      70.979      -9.870
  C      161.721      70.115      -8.850
  O      162.047      70.494      -7.730
  C      161.636      68.683      -9.181
  C      161.292      68.324     -10.421
  O      158.535      62.568     -12.951
  O      161.011      63.069     -12.354
  H      161.231      70.647     -14.588
  H      161.222      62.383     -13.033
  H      161.495      71.966      -9.665
  H      161.858      67.967      -8.399
  H      161.223      67.274     -10.691
  H      159.867      69.527     -13.108
  H      162.744      69.575     -13.273
  H      162.854      67.242     -13.145
  H      160.339      67.067     -14.866
  H      161.499      64.913     -14.564
  H      161.570      65.169     -12.802
  P      164.369      66.391     -15.093
  C      164.126      64.839     -17.165
  O      164.060      64.955     -15.748
  O      165.158      66.444     -13.822
  O      165.256      67.100     -16.241
  H      166.188      67.056     -15.960
  H      163.898      63.834     -17.452
  H      165.111      65.090     -17.498
  H      163.418      65.506     -17.611

 6  7  8  9  10  11  12  13  14  15  16  26  31  32  33  34  35 0
 6-311+G(2d,p)
 ****
 36  37 0
 6-311+G(2d,p)
 ****
 1  2  3  4  5  17  18  19  20  21  22  23  24  25 0
 3-21G
 ****
 27  28  29  30  38  39  40  41  42  43  44  45 0
 3-21G
 ****


