%nproc=1
%NoSave
%Mem=1900MB
#P OB98/GEN NMR

erre ene a

0 1
  C       14.036      89.593     -25.016
  O       14.932      90.541     -25.600
  P       16.066      89.940     -26.566
  C       18.323      91.035     -25.919
  O       17.189      91.069     -26.773
  C       19.075      92.370     -25.933
  O       20.400      92.217     -26.522
  C       18.362      93.473     -26.722
  O       18.636      94.712     -26.052
  C       19.089      93.459     -28.053
  O       18.885      94.671     -28.776
  C       20.516      93.211     -27.567
  N       23.791      94.727     -31.098
  C       22.969      95.466     -30.270
  N       23.072      96.811     -30.361
  N       22.123      94.936     -29.426
  C       22.159      93.580     -29.415
  C       22.936      92.737     -30.173
  C       23.846      93.338     -31.127
  O       24.597      92.728     -31.879
  N       22.709      91.417     -29.853
  C       21.744      91.477     -28.951
  N       21.415      92.759     -28.612
  O       15.330      89.865     -27.986
  O       16.574      88.605     -26.134
  H       19.166      95.411     -28.196
  H       15.035      88.953     -28.164
  H       24.413      95.186     -31.742
  H       21.269      90.624     -28.495
  H       20.971      94.113     -27.136
  H       18.735      92.624     -28.670
  H       23.738      97.283     -30.955
  H       17.282      93.330     -26.827
  H       22.510      97.375     -29.737
  H       19.217      92.693     -24.894
  H       19.002      90.239     -26.233
  H       17.998      90.775     -24.905
  P       17.763      95.073     -24.760
  C       16.882      97.461     -25.227
  O       17.837      96.659     -24.560
  O       18.651      94.503     -23.553
  O       16.394      94.474     -24.745
  H       18.067      94.110     -22.876
  H       16.748      98.390     -24.666
  H       15.916      96.958     -25.310
  H       17.249      97.702     -26.228
  H       13.329      90.105     -24.397
  H       14.591      88.896     -24.423
  H       13.517      89.068     -25.791

 3  4  5  6  7  8  9  10  11  12  23  26  30  31 0
 6-311+G(2d,p)
 ****
 33  35  36  37  38 0
 6-311+G(2d,p)
 ****
 1  2  13  14  15  16  17  18  19  20  21  22  24  25 0
 3-21G
 ****
 27  28  29  32  34  39  40  41  42  43  44  45  46  47  48  49 0
 3-21G
 ****


