%nproc=1
%NoSave
%Mem=1900MB
#P OB98/GEN NMR

erre ene a

0 1
  C      903.357     182.435    -154.861
  O      902.815     181.376    -155.630
  P      903.777     180.224    -156.196
  C      903.102     178.344    -154.576
  O      904.130     179.233    -154.989
  C      903.438     176.905    -154.970
  O      904.544     176.406    -154.185
  C      902.308     175.925    -154.733
  O      901.264     176.056    -155.682
  C      903.059     174.589    -154.810
  O      903.282     174.195    -156.170
  C      904.397     174.968    -154.128
  N      904.484     174.467    -152.762
  C      905.353     173.379    -152.563
  O      905.909     172.845    -153.514
  N      905.531     172.924    -151.280
  C      904.823     173.420    -150.313
  N      905.090     172.964    -149.057
  C      903.795     174.457    -150.510
  C      903.698     174.948    -151.747
  O      904.949     180.700    -156.982
  O      902.802     179.327    -157.105
  H      903.227     179.204    -157.990
  H      903.818     174.894    -156.579
  H      903.192     174.786    -149.682
  H      902.980     175.735    -151.984
  H      905.240     174.556    -154.711
  H      902.520     173.777    -154.317
  H      901.903     176.054    -153.727
  H      903.730     176.905    -156.020
  H      905.828     172.263    -148.952
  H      902.164     178.641    -155.063
  H      904.852     173.501    -148.214
  H      902.968     178.420    -153.486
  P      899.765     175.909    -155.137
  C      899.030     178.383    -155.294
  O      899.353     177.293    -154.458
  O      899.917     174.906    -153.921
  O      898.794     175.397    -156.149
  H      899.135     174.311    -153.878
  H      898.443     179.114    -154.702
  H      898.425     178.067    -156.143
  H      899.946     178.877    -155.643
  H      902.573     183.103    -154.572
  H      904.081     182.965    -155.444
  H      903.827     182.036    -153.986

 3  4  5  6  7  8  9  10  11  12  13  24  27  28  29  30  32 0
 6-311+G(2d,p)
 ****
 34  35 0
 6-311+G(2d,p)
 ****
 1  2  14  15  16  17  18  19  20  21  22  23  25  26 0
 3-21G
 ****
 31  33  36  37  38  39  40  41  42  43  44  45  46 0
 3-21G
 ****


