%nproc=1
%NoSave
%Mem=1900MB
#P OB98/GEN NMR

erre ene a

0 1
  C      223.499     121.608    -377.221
  O      222.591     121.716    -378.324
  P      221.079     121.263    -378.033
  C      220.137     123.459    -377.026
  O      220.151     122.572    -378.134
  C      219.652     124.855    -377.448
  O      220.436     125.360    -378.567
  C      218.170     124.890    -377.880
  O      217.651     126.163    -377.459
  C      218.286     124.828    -379.397
  O      217.091     125.219    -380.061
  C      219.497     125.733    -379.604
  N      222.377     128.107    -383.093
  C      221.931     128.487    -381.876
  N      221.164     127.794    -381.003
  C      220.861     126.588    -381.500
  C      221.237     126.048    -382.726
  C      222.036     126.875    -383.550
  N      222.476     126.499    -384.799
  N      220.703     124.782    -382.893
  C      219.962     124.589    -381.815
  N      220.095     125.610    -380.914
  O      221.087     120.915    -376.466
  O      220.630     120.106    -378.867
  H      216.350     124.650    -379.767
  H      221.163     119.951    -376.333
  H      222.238     129.488    -381.556
  H      219.318     123.737    -381.636
  H      219.253     126.793    -379.458
  H      218.513     123.801    -379.700
  H      217.564     124.090    -377.448
  H      219.807     125.546    -376.600
  H      221.133     123.544    -376.594
  H      223.042     127.160    -385.316
  H      222.229     125.593    -385.178
  H      219.496     123.038    -376.237
  P      216.076     126.299    -377.185
  C      216.368     124.883    -375.062
  O      215.919     126.118    -375.596
  O      215.555     124.876    -377.717
  O      215.397     127.475    -377.818
  H      216.080     124.147    -377.339
  H      216.282     124.921    -373.971
  H      217.415     124.712    -375.336
  H      215.744     124.067    -375.437
  H      224.471     121.934    -377.526
  H      223.550     120.589    -376.899
  H      223.154     122.220    -376.414

 3  4  5  6  7  8  9  10  11  12  22  25  29  30  31  32 0
 6-311+G(2d,p)
 ****
 33  36  37 0
 6-311+G(2d,p)
 ****
 1  2  13  14  15  16  17  18  19  20  21  23  24  26 0
 3-21G
 ****
 27  28  34  35  38  39  40  41  42  43  44  45  46  47  48 0
 3-21G
 ****


