%nproc=1
%NoSave
%Mem=1900MB
#P OB98/GEN NMR

erre ene a

0 1
  C       76.268     223.862     180.317
  O       74.962     223.312     180.271
  P       74.293     222.927     178.866
  C       73.886     224.324     176.734
  O       73.935     224.325     178.159
  C       72.686     225.133     176.232
  O       71.450     224.538     176.674
  C       72.655     226.572     176.732
  O       73.579     227.373     176.008
  C       71.190     226.931     176.502
  O       70.958     227.319     175.141
  C       70.475     225.600     176.820
  N       69.865     225.596     178.148
  C       68.506     225.253     178.195
  O       67.895     225.013     177.154
  N       67.870     225.247     179.417
  C       68.534     225.567     180.487
  N       67.841     225.549     181.667
  C       69.954     225.963     180.472
  C       70.553     225.957     179.284
  O       73.166     221.946     178.948
  O       75.535     222.397     178.003
  H       71.241     226.560     174.586
  H       75.824     221.494     178.298
  H       70.458     226.234     181.394
  H       71.596     226.238     179.187
  H       69.690     225.395     176.079
  H       70.869     227.765     177.140
  H       72.874     226.597     177.805
  H       72.700     225.117     175.132
  H       66.864     225.302     181.621
  H       73.788     223.286     176.395
  H       68.249     225.816     182.548
  H       74.821     224.730     176.332
  P       74.287     228.613     176.725
  C       73.612     230.962     177.535
  O       73.217     229.812     176.813
  O       75.626     228.991     176.181
  O       74.414     228.143     178.259
  H       75.307     228.372     178.586
  H       72.971     231.797     177.237
  H       74.656     231.217     177.320
  H       73.495     230.777     178.602
  H       76.539     224.052     181.334
  H       76.289     224.779     179.766
  H       76.962     223.171     179.886

 3  4  5  6  7  8  9  10  11  12  13  23  27  28  29  30  32 0
 6-311+G(2d,p)
 ****
 34  35 0
 6-311+G(2d,p)
 ****
 1  2  14  15  16  17  18  19  20  21  22  24  25  26 0
 3-21G
 ****
 31  33  36  37  38  39  40  41  42  43  44  45  46 0
 3-21G
 ****


