%nproc=1
%NoSave
%Mem=1900MB
#P OB98/GEN NMR

erre ene a

0 1
  C     -196.264     351.899    -169.397
  O     -197.110     352.153    -168.295
  H     -195.975     350.846    -169.417
  H     -196.805     352.133    -170.319
  H     -195.372     352.529    -169.343
  P     -196.517     351.836    -166.839
  C     -196.479     354.351    -166.212
  O     -195.730     353.152    -166.357
  C     -195.601     355.443    -165.607
  O     -195.525     355.226    -164.174
  C     -194.165     355.493    -166.159
  O     -193.893     356.781    -166.715
  C     -193.283     355.299    -164.934
  O     -192.126     356.134    -164.938
  C     -194.211     355.632    -163.773
  N     -192.185     356.278    -159.142
  C     -192.818     357.139    -159.969
  N     -193.429     356.881    -161.143
  C     -193.367     355.569    -161.429
  C     -192.779     354.569    -160.677
  C     -192.149     354.971    -159.487
  N     -191.456     354.101    -158.672
  N     -192.909     353.343    -161.301
  C     -193.529     353.607    -162.433
  N     -193.809     354.942    -162.564
  O     -195.343     350.788    -167.143
  O     -197.501     351.294    -165.859
  H     -191.618     355.906    -165.740
  H     -195.415     350.030    -166.533
  H     -192.828     358.177    -159.649
  H     -193.757     352.885    -163.209
  H     -194.238     356.707    -163.560
  H     -192.954     354.254    -164.894
  H     -193.973     354.716    -166.907
  H     -196.098     356.409    -165.760
  H     -197.331     354.172    -165.549
  H     -190.935     354.493    -157.904
  H     -191.331     353.147    -158.980
  H     -196.856     354.655    -167.193
  P     -194.692     357.171    -168.056
  C     -195.424     359.639    -167.673
  O     -195.794     358.266    -167.655
  O     -195.565     355.860    -168.345
  O     -193.810     357.522    -169.206
  H     -195.756     355.790    -169.300
  H     -196.262     360.238    -167.384
  H     -195.114     359.912    -168.660
  H     -194.617     359.800    -166.989

 6  7  8  9  10  11  12  13  14  15  25  28  32  33  34  35 0
 6-311+G(2d,p)
 ****
 36  39  40 0
 6-311+G(2d,p)
 ****
 1  2  3  4  5  16  17  18  19  20  21  22  23  24 0
 3-21G
 ****
 26  27  29  30  31  37  38  41  42  43  44  45  46  47  48 0
 3-21G
 ****


