%nproc=1
%NoSave
%Mem=1900MB
#P OB98/GEN NMR

erre ene a

0 1
  C        3.954     141.071     133.457
  O        5.219     141.586     133.073
  P        5.331     142.716     131.941
  C        5.109     140.952     130.084
  O        4.573     142.144     130.646
  C        5.151     141.047     128.560
  O        3.794     141.038     128.055
  C        5.823     142.317     128.049
  O        6.542     142.008     126.852
  C        4.667     143.235     127.685
  O        5.050     144.181     126.676
  C        3.602     142.219     127.252
  N       -0.947     143.157     125.059
  C        0.195     142.623     124.568
  N        1.374     142.428     125.200
  C        1.283     142.796     126.489
  C        0.187     143.351     127.132
  C       -0.973     143.534     126.358
  N       -2.139     144.067     126.865
  N        0.484     143.628     128.454
  C        1.727     143.228     128.606
  N        2.251     142.709     127.451
  O        6.712     143.214     131.681
  O        4.362     143.885     132.443
  H        4.261     144.725     126.478
  H        4.749     144.759     132.240
  H        0.158     142.317     123.528
  H        2.296     143.303     129.522
  H        3.718     141.938     126.200
  H        4.349     143.795     128.572
  H        6.495     142.769     128.785
  H        5.653     140.155     128.168
  H        4.468     140.114     130.375
  H       -2.953     144.047     126.271
  H       -2.212     144.184     127.868
  H        6.111     140.777     130.488
  P        8.139     142.213     126.919
  C        7.744     144.699     126.258
  O        8.338     143.786     127.152
  O        8.833     141.603     125.748
  O        8.481     141.532     128.330
  H        7.703     141.541     128.931
  H        8.024     145.716     126.557
  H        6.656     144.616     126.299
  H        8.095     144.523     125.236
  H        4.086     140.332     134.220
  H        3.477     140.626     132.608
  H        3.344     141.866     133.833

 3  4  5  6  7  8  9  10  11  12  22  25  29  30  31  32 0
 6-311+G(2d,p)
 ****
 33  36  37 0
 6-311+G(2d,p)
 ****
 1  2  13  14  15  16  17  18  19  20  21  23  24  26 0
 3-21G
 ****
 27  28  34  35  38  39  40  41  42  43  44  45  46  47  48 0
 3-21G
 ****


