%nproc=1
%NoSave
%Mem=1900MB
#P OB98/GEN NMR

erre ene a

0 1
  C      157.796      66.679    -200.428
  O      159.096      66.130    -200.344
  H      157.146      66.223    -199.678
  H      157.852      67.754    -200.239
  H      157.381      66.519    -201.427
  P      159.227      64.546    -200.553
  C      158.405      63.148    -202.576
  O      159.149      64.275    -202.136
  C      158.434      63.065    -204.102
  O      157.812      64.260    -204.638
  C      159.843      62.948    -204.709
  O      159.944      61.762    -205.504
  C      159.960      64.154    -205.629
  O      160.614      63.858    -206.864
  C      158.512      64.576    -205.848
  N      157.496      67.956    -209.526
  C      157.159      66.654    -209.389
  N      157.367      65.839    -208.338
  C      157.975      66.499    -207.338
  C      158.360      67.829    -207.318
  C      158.112      68.569    -208.487
  N      158.508      69.879    -208.648
  N      158.966      68.148    -206.116
  C      158.985      67.020    -205.438
  N      158.415      65.991    -206.145
  O      157.829      63.987    -200.009
  O      160.384      63.908    -199.860
  H      160.110      63.135    -207.281
  H      157.988      63.234    -199.407
  H      156.658      66.207    -210.247
  H      159.434      66.878    -204.462
  H      158.037      64.019    -206.667
  H      160.530      64.938    -205.118
  H      160.634      62.954    -203.949
  H      157.817      62.215    -204.412
  H      157.363      63.245    -202.249
  H      158.398      70.295    -209.559
  H      159.067      70.309    -207.921
  H      158.829      62.241    -202.131
  P      161.148      60.755    -205.145
  C      161.714      59.135    -203.185
  O      160.808      60.088    -203.724
  O      162.357      61.747    -204.805
  O      161.491      59.807    -206.242
  H      163.209      61.309    -204.983
  H      161.347      58.788    -202.242
  H      162.672      59.591    -203.049
  H      161.805      58.309    -203.859

 6  7  8  9  10  11  12  13  14  15  25  28  32  33  34  35 0
 6-311+G(2d,p)
 ****
 36  39  40 0
 6-311+G(2d,p)
 ****
 1  2  3  4  5  16  17  18  19  20  21  22  23  24 0
 3-21G
 ****
 26  27  29  30  31  37  38  41  42  43  44  45  46  47  48 0
 3-21G
 ****


