%nproc=1
%NoSave
%Mem=1900MB
#P OB98/GEN NMR

erre ene a

0 1
  C      191.687      31.200      61.047
  O      192.099      30.902      59.728
  H      190.745      30.683      61.247
  H      191.526      32.276      61.152
  H      192.436      30.863      61.770
  P      193.572      31.362      59.295
  C      194.624      33.573      58.424
  O      193.436      32.863      58.739
  C      194.282      34.833      57.626
  O      193.976      34.446      56.257
  C      193.071      35.605      58.167
  O      193.308      37.005      57.988
  C      191.946      35.168      57.244
  O      190.862      36.086      57.179
  C      192.701      35.028      55.918
  N      191.985      34.199      54.949
  C      190.902      34.777      54.290
  O      190.559      35.952      54.400
  N      190.196      33.935      53.468
  C      190.446      32.609      53.266
  O      189.761      31.904      52.532
  C      191.594      32.055      53.995
  C      192.297      32.864      54.794
  O      193.843      30.500      57.973
  O      194.633      31.174      60.328
  H      194.256      29.645      58.201
  H      190.467      36.134      58.072
  H      189.410      34.337      52.983
  H      191.815      31.004      53.868
  H      193.140      32.481      55.362
  H      192.896      36.016      55.484
  H      191.549      34.201      57.573
  H      192.842      35.400      59.220
  H      195.170      35.477      57.587
  H      195.279      32.936      57.820
  H      195.145      33.838      59.350
  P      193.214      37.942      59.287
  C      191.217      38.719      60.801
  O      191.648      38.073      59.609
  O      193.616      39.361      58.678
  O      194.072      37.468      60.411
  H      193.298      39.488      57.765
  H      190.148      38.711      60.844
  H      191.567      39.730      60.805
  H      191.612      38.202      61.650

 6  7  8  9  10  11  12  13  14  15  16  27  31  32  33  34  35 0
 6-311+G(2d,p)
 ****
 36  37 0
 6-311+G(2d,p)
 ****
 1  2  3  4  5  17  18  19  20  21  22  23  24  25 0
 3-21G
 ****
 26  28  29  30  38  39  40  41  42  43  44  45 0
 3-21G
 ****


