%nproc=1
%NoSave
%Mem=1900MB
#P OB98/GEN NMR

erre ene a

0 1
  C     -234.331    -609.574      16.449
  O     -233.365    -610.502      16.900
  H     -234.787    -609.094      17.319
  H     -235.114    -610.090      15.887
  H     -233.869    -608.804      15.826
  P     -232.438    -611.236      15.819
  C     -230.804    -609.285      15.393
  O     -231.844    -610.099      14.863
  C     -229.831    -608.900      14.281
  O     -229.203    -610.080      13.737
  C     -230.487    -608.197      13.102
  O     -230.783    -606.847      13.408
  C     -229.428    -608.387      12.029
  O     -228.376    -607.422      12.165
  C     -228.915    -609.809      12.347
  N     -229.497    -610.834      11.480
  C     -228.613    -611.760      10.933
  O     -227.398    -611.728      11.122
  N     -229.173    -612.712      10.125
  C     -230.481    -612.765       9.732
  O     -230.913    -613.593       8.935
  C     -231.363    -611.746      10.320
  C     -230.838    -610.844      11.154
  O     -233.060    -612.394      15.113
  O     -231.156    -611.691      16.670
  H     -228.793    -606.544      12.065
  H     -231.203    -612.653      16.831
  H     -228.547    -613.384       9.710
  H     -232.405    -611.761      10.047
  H     -231.474    -610.082      11.590
  H     -227.821    -609.851      12.239
  H     -229.831    -608.280      11.025
  H     -231.392    -608.731      12.804
  H     -229.042    -608.270      14.721
  H     -230.274    -609.852      16.164
  H     -231.248    -608.393      15.850
  P     -231.730    -606.000      12.436
  C     -233.858    -605.567      13.804
  O     -233.252    -606.359      12.793
  O     -231.383    -606.074      10.984
  O     -231.579    -604.498      12.975
  H     -231.219    -603.936      12.268
  H     -234.865    -605.894      13.957
  H     -233.858    -604.541      13.501
  H     -233.307    -605.670      14.716

 6  7  8  9  10  11  12  13  14  15  16  26  31  32  33  34  35 0
 6-311+G(2d,p)
 ****
 36  37 0
 6-311+G(2d,p)
 ****
 1  2  3  4  5  17  18  19  20  21  22  23  24  25 0
 3-21G
 ****
 27  28  29  30  38  39  40  41  42  43  44  45 0
 3-21G
 ****


