%nproc=1
%NoSave
%Mem=1900MB
#P OB98/GEN NMR

erre ene a

0 1
  C       60.993     -27.290      17.908
  O       62.048     -28.058      17.359
  P       63.241     -28.567      18.298
  C       61.874     -30.644      19.066
  O       62.582     -29.481      19.437
  C       62.426     -31.882      19.784
  O       62.312     -31.657      21.210
  C       61.670     -33.176      19.504
  O       62.502     -34.278      19.871
  C       60.510     -33.073      20.469
  O       59.910     -34.339      20.730
  C       61.156     -32.378      21.696
  N       60.213     -31.454      22.352
  C       59.655     -31.875      23.556
  O       59.972     -32.926      24.110
  N       58.656     -31.087      24.059
  C       58.150     -29.974      23.454
  O       57.075     -29.466      23.748
  C       58.934     -29.453      22.323
  C       59.901     -30.221      21.814
  O       63.671     -27.238      19.076
  O       64.389     -29.184      17.576
  H       59.315     -34.217      21.507
  H       64.436     -26.822      18.636
  H       58.154     -31.467      24.852
  H       58.657     -28.495      21.908
  H       60.463     -29.886      20.946
  H       61.485     -33.111      22.442
  H       59.739     -32.425      20.035
  H       61.331     -33.284      18.470
  H       63.490     -31.997      19.544
  H       61.930     -30.770      17.981
  H       60.811     -30.536      19.311
  P       62.192     -35.705      19.209
  C       64.473     -35.766      18.031
  O       63.069     -35.780      17.869
  O       60.750     -36.055      19.054
  O       62.951     -36.728      20.184
  H       62.595     -37.626      20.060
  H       64.929     -36.316      17.205
  H       64.772     -36.230      18.975
  H       64.827     -34.732      18.007
  H       60.294     -27.042      17.137
  H       61.389     -26.391      18.332
  H       60.499     -27.856      18.670

 3  4  5  6  7  8  9  10  11  12  13  23  28  29  30  31  32 0
 6-311+G(2d,p)
 ****
 33  34 0
 6-311+G(2d,p)
 ****
 1  2  14  15  16  17  18  19  20  21  22  24  25  26  27 0
 3-21G
 ****
 35  36  37  38  39  40  41  42  43  44  45 0
 3-21G
 ****


