%nproc=1
%NoSave
%Mem=1900MB
#P OB98/GEN NMR

erre ene a

0 1
  C     -160.523     -29.337     -56.593
  O     -160.517     -29.445     -58.001
  H     -160.213     -28.326     -56.318
  H     -159.824     -30.051     -56.149
  H     -161.530     -29.511     -56.203
  P     -160.827     -30.872     -58.659
  C     -161.725     -31.316     -61.043
  O     -160.740     -30.674     -60.247
  C     -161.444     -31.105     -62.536
  O     -161.663     -29.703     -62.861
  C     -160.004     -31.450     -62.951
  O     -160.046     -31.891     -64.314
  C     -159.330     -30.097     -62.845
  O     -158.081     -30.091     -63.489
  C     -160.429     -29.195     -63.416
  N     -160.223     -27.792     -63.097
  C     -159.599     -27.020     -64.081
  O     -159.244     -27.535     -65.141
  N     -159.365     -25.693     -63.828
  C     -159.664     -25.196     -62.669
  N     -159.392     -23.878     -62.476
  C     -160.270     -25.991     -61.580
  C     -160.525     -27.268     -61.862
  O     -162.064     -31.554     -58.179
  O     -159.520     -31.739     -58.331
  H     -158.148     -30.480     -64.391
  H     -159.717     -32.372     -57.616
  H     -160.484     -25.534     -60.626
  H     -160.969     -27.932     -61.127
  H     -160.492     -29.300     -64.506
  H     -159.142     -29.841     -61.797
  H     -159.550     -32.218     -62.319
  H     -162.173     -31.684     -63.116
  H     -158.966     -23.374     -63.246
  H     -162.694     -30.882     -60.780
  H     -159.562     -23.388     -61.611
  H     -161.749     -32.388     -60.822
  P     -160.553     -33.351     -64.742
  C     -162.479     -34.394     -66.107
  O     -161.756     -33.207     -65.792
  O     -160.857     -34.250     -63.589
  O     -159.363     -33.961     -65.624
  H     -159.348     -34.930     -65.513
  H     -163.250     -34.165     -66.813
  H     -162.918     -34.791     -65.216
  H     -161.812     -35.117     -66.528

 6  7  8  9  10  11  12  13  14  15  16  26  30  31  32  33  35 0
 6-311+G(2d,p)
 ****
 37  38 0
 6-311+G(2d,p)
 ****
 1  2  3  4  5  17  18  19  20  21  22  23  24  25 0
 3-21G
 ****
 27  28  29  34  36  39  40  41  42  43  44  45  46 0
 3-21G
 ****


