%nproc=1
%NoSave
%Mem=1900MB
#P OB98/GEN NMR

erre ene a

0 1
  C      -65.555      40.777    -112.104
  O      -64.140      40.865    -112.155
  P      -63.295      39.792    -111.313
  C      -61.743      39.269    -113.315
  O      -61.834      39.740    -111.977
  C      -60.436      39.715    -113.960
  O      -60.569      41.099    -114.384
  C      -59.214      39.632    -113.032
  O      -58.105      39.085    -113.759
  C      -58.896      41.087    -112.734
  O      -57.526      41.275    -112.395
  C      -59.322      41.739    -114.048
  N      -57.356      46.151    -115.521
  C      -57.091      44.873    -115.971
  N      -56.124      44.753    -116.907
  N      -57.714      43.808    -115.542
  C      -58.679      44.081    -114.630
  C      -59.040      45.304    -114.113
  C      -58.300      46.467    -114.554
  O      -58.425      47.613    -114.127
  N      -60.075      45.182    -113.222
  C      -60.338      43.890    -113.195
  N      -59.484      43.174    -113.996
  O      -63.959      38.400    -111.743
  O      -63.329      39.973    -109.835
  H      -57.423      42.208    -112.129
  H      -64.266      37.922    -110.949
  H      -56.834      46.934    -115.873
  H      -61.108      43.427    -112.591
  H      -58.598      41.513    -114.841
  H      -59.513      41.425    -111.895
  H      -55.630      45.534    -117.307
  H      -59.381      39.050    -112.120
  H      -55.931      43.825    -117.266
  H      -60.274      39.119    -114.866
  H      -62.583      39.668    -113.893
  H      -61.807      38.176    -113.310
  P      -57.199      38.023    -112.965
  C      -57.270      35.852    -114.400
  O      -56.591      37.050    -114.081
  O      -58.273      37.112    -112.207
  O      -56.215      38.646    -112.031
  H      -57.875      36.700    -111.418
  H      -58.261      35.802    -113.937
  H      -56.677      35.003    -114.054
  H      -57.385      35.787    -115.485
  H      -65.982      41.550    -112.708
  H      -65.883      40.893    -111.092
  H      -65.867      39.822    -112.473

 3  4  5  6  7  8  9  10  11  12  23  26  30  31  33  0
 6-311+G(2d,p)
 ****
 35  36  37  38 0
 6-311+G(2d,p)
 ****
 1  2  13  14  15  16  17  18  19  20  21  22  24  25  27  28  29 0
 3-21G
 ****
 32  34  39  40  41  42  43  44  45  46  47  48  49 0
 3-21G
 ****


