%nproc=1
%NoSave
%Mem=1900MB
#P OB98/GEN NMR

erre ene a

0 1
  C      484.687    -441.923     372.558
  O      483.750    -441.928     371.495
  H      484.392    -442.684     373.282
  H      484.700    -440.948     373.057
  H      485.686    -442.166     372.182
  P      483.913    -440.841     370.327
  C      482.159    -442.414     369.242
  O      482.702    -441.096     369.308
  C      481.605    -442.698     367.849
  O      480.381    -441.962     367.634
  C      482.532    -442.288     366.709
  O      483.603    -443.213     366.579
  C      481.556    -442.256     365.545
  O      481.275    -443.581     365.065
  C      480.302    -441.638     366.223
  N      480.186    -440.201     366.021
  C      480.132    -439.766     364.687
  O      480.211    -440.584     363.771
  N      480.012    -438.415     364.444
  C      479.915    -437.579     365.432
  N      479.799    -436.264     365.121
  C      479.925    -438.002     366.849
  C      480.073    -439.305     367.075
  O      485.260    -440.763     369.682
  O      483.516    -439.458     371.031
  H      480.510    -443.497     364.459
  H      484.308    -439.003     371.363
  H      479.825    -437.263     367.645
  H      480.085    -439.699     368.085
  H      479.394    -442.111     365.841
  H      481.943    -441.682     364.696
  H      482.919    -441.278     366.870
  H      481.358    -443.766     367.797
  H      479.772    -436.025     364.138
  H      481.357    -442.471     369.985
  H      479.552    -435.542     365.788
  H      482.924    -443.155     369.501
  P      485.109    -442.730     366.340
  C      486.350    -444.067     368.156
  O      486.035    -443.974     366.770
  O      485.471    -441.427     366.962
  O      485.259    -442.741     364.740
  H      484.814    -441.938     364.347
  H      486.966    -444.926     368.325
  H      485.446    -444.159     368.722
  H      486.874    -443.186     368.463

 6  7  8  9  10  11  12  13  14  15  16  26  30  31  32  33  35 0
 6-311+G(2d,p)
 ****
 37  38 0
 6-311+G(2d,p)
 ****
 1  2  3  4  5  17  18  19  20  21  22  23  24  25 0
 3-21G
 ****
 27  28  29  34  36  39  40  41  42  43  44  45  46 0
 3-21G
 ****


