%nproc=1
%NoSave
%Mem=1900MB
#P OB98/GEN NMR

erre ene a

0 1
  C     -215.684     -20.895    -323.464
  O     -215.398     -21.413    -322.163
  P     -216.527     -21.197    -321.036
  C     -217.242     -23.689    -320.790
  O     -217.603     -22.377    -321.203
  C     -218.184     -24.189    -319.699
  O     -218.018     -23.435    -318.485
  C     -219.662     -24.065    -320.042
  O     -220.095     -25.117    -320.890
  C     -220.300     -24.190    -318.663
  O     -220.416     -25.578    -318.302
  C     -219.274     -23.483    -317.763
  N     -221.628     -20.563    -314.348
  C     -221.440     -21.930    -314.364
  N     -221.924     -22.616    -313.306
  N     -220.831     -22.572    -315.330
  C     -220.373     -21.755    -316.308
  C     -220.497     -20.388    -316.408
  C     -221.201     -19.696    -315.349
  O     -221.419     -18.492    -315.301
  N     -219.892     -19.911    -317.542
  C     -219.379     -20.982    -318.115
  N     -219.657     -22.128    -317.410
  O     -217.311     -19.905    -321.560
  O     -215.980     -21.001    -319.660
  H     -219.521     -25.968    -318.374
  H     -217.717     -19.430    -320.808
  H     -222.107     -20.122    -313.586
  H     -218.799     -20.980    -319.025
  H     -219.096     -24.041    -316.836
  H     -221.304     -23.766    -318.623
  H     -222.339     -22.181    -312.494
  H     -219.884     -23.079    -320.470
  H     -221.766     -23.619    -313.280
  H     -217.936     -25.240    -319.490
  H     -216.217     -23.690    -320.412
  H     -217.263     -24.353    -321.659
  P     -220.978     -24.713    -322.171
  C     -218.910     -25.612    -323.451
  O     -219.951     -24.661    -323.399
  O     -221.331     -23.173    -321.893
  O     -222.202     -25.544    -322.364
  H     -222.179     -22.946    -322.316
  H     -219.271     -26.613    -323.184
  H     -218.109     -25.319    -322.764
  H     -218.508     -25.646    -324.468
  H     -214.863     -21.101    -324.118
  H     -215.834     -19.837    -323.402
  H     -216.569     -21.359    -323.846

 3  4  5  6  7  8  9  10  11  12  23  26  30  31  33  0
 6-311+G(2d,p)
 ****
 35  36  37  38 0
 6-311+G(2d,p)
 ****
 1  2  13  14  15  16  17  18  19  20  21  22  24  25  27  28  29 0
 3-21G
 ****
 32  34  39  40  41  42  43  44  45  46  47  48  49 0
 3-21G
 ****


