%nproc=1
%NoSave
%Mem=1900MB
#P OB98/GEN NMR

erre ene a

0 1
  C     -160.597     -62.689     328.746
  O     -159.704     -63.146     327.747
  H     -161.278     -61.946     328.322
  H     -161.180     -63.540     329.111
  H     -160.045     -62.254     329.584
  P     -158.629     -62.088     327.201
  C     -159.219     -62.609     324.720
  O     -158.221     -62.601     325.732
  C     -159.259     -63.967     324.019
  O     -157.905     -64.338     323.642
  C     -159.822     -65.090     324.894
  O     -160.617     -65.955     324.080
  C     -158.582     -65.825     325.371
  O     -158.850     -67.180     325.709
  C     -157.651     -65.654     324.173
  N     -153.713     -68.891     324.463
  C     -154.952     -69.023     323.947
  N     -155.941     -68.105     323.905
  C     -155.527     -66.935     324.430
  C     -154.296     -66.653     324.993
  C     -153.359     -67.701     325.010
  N     -152.107     -67.590     325.567
  N     -154.266     -65.351     325.456
  C     -155.456     -64.861     325.174
  N     -156.254     -65.783     324.554
  O     -157.339     -62.424     328.090
  O     -159.022     -60.654     327.299
  H     -159.709     -67.218     326.182
  H     -157.431     -62.008     328.969
  H     -155.183     -69.996     323.515
  H     -155.789     -63.856     325.399
  H     -157.840     -66.390     323.384
  H     -158.174     -65.326     326.259
  H     -160.422     -64.719     325.726
  H     -159.829     -63.862     323.088
  H     -158.989     -61.825     323.991
  H     -151.520     -68.409     325.589
  H     -151.851     -66.732     326.030
  H     -160.194     -62.400     325.176
  P     -162.209     -65.746     324.143
  C     -162.454     -66.949     326.426
  O     -162.843     -66.904     325.057
  O     -162.689     -66.124     322.662
  O     -162.613     -64.355     324.504
  H     -163.272     -65.428     322.310
  H     -162.949     -67.764     326.911
  H     -162.726     -66.031     326.904
  H     -161.395     -67.086     326.492

 6  7  8  9  10  11  12  13  14  15  25  28  32  33  34  35 0
 6-311+G(2d,p)
 ****
 36  39  40 0
 6-311+G(2d,p)
 ****
 1  2  3  4  5  16  17  18  19  20  21  22  23  24 0
 3-21G
 ****
 26  27  29  30  31  37  38  41  42  43  44  45  46  47 0
 3-21G
 ****
 48 0
 3-21G
 ****


