%nproc=1
%NoSave
%Mem=1900MB
#P OB98/GEN NMR

erre ene a

0 1
  C     -195.815     133.494     184.094
  O     -195.295     134.517     184.917
  H     -196.621     133.910     183.485
  H     -196.222     132.687     184.708
  H     -195.042     133.098     183.428
  P     -193.980     134.221     185.781
  C     -195.362     133.437     187.815
  O     -194.399     134.353     187.322
  C     -195.920     133.905     189.164
  O     -194.840     133.875     190.148
  C     -196.482     135.340     189.153
  O     -197.529     135.386     190.133
  C     -195.264     136.128     189.603
  O     -195.574     137.456     189.941
  C     -194.768     135.200     190.720
  N     -193.422     135.476     191.210
  C     -193.299     136.041     192.475
  O     -194.239     136.320     193.212
  N     -192.015     136.292     192.890
  C     -190.876     136.026     192.190
  O     -189.754     136.242     192.625
  C     -191.072     135.435     190.857
  C     -192.315     135.185     190.436
  O     -192.760     134.986     185.389
  O     -193.763     132.642     185.608
  H     -193.055     132.478     184.956
  H     -196.172     137.455     190.719
  H     -191.905     136.696     193.806
  H     -190.191     135.221     190.267
  H     -192.490     134.741     189.462
  H     -195.465     135.221     191.563
  H     -194.537     136.187     188.792
  H     -196.879     135.636     188.178
  H     -196.675     133.186     189.503
  H     -194.877     132.460     187.935
  H     -196.175     133.340     187.087
  P     -199.065     135.059     189.800
  C     -199.758     137.541     189.535
  O     -199.952     136.323     190.246
  O     -199.543     133.762     190.365
  O     -199.163     135.067     188.202
  H     -199.901     134.495     187.919
  H     -200.407     138.293     189.932
  H     -199.980     137.389     188.499
  H     -198.741     137.856     189.639

 6  7  8  9  10  11  12  13  14  15  16  27  31  32  33  34  35 0
 6-311+G(2d,p)
 ****
 36  37 0
 6-311+G(2d,p)
 ****
 1  2  3  4  5  17  18  19  20  21  22  23  24  25 0
 3-21G
 ****
 26  28  29  30  38  39  40  41  42  43  44  45 0
 3-21G
 ****


