%nproc=1
%NoSave
%Mem=1900MB
#P OB98/GEN NMR

erre ene a

0 1
  C     -320.170    -158.503     -70.494
  O     -319.771    -159.203     -71.679
  P     -319.030    -158.352     -72.821
  C     -317.313    -160.167     -73.618
  O     -318.499    -159.431     -73.884
  C     -317.185    -161.325     -74.604
  O     -318.073    -162.407     -74.238
  C     -317.550    -160.967     -76.035
  O     -316.535    -160.190     -76.653
  C     -317.756    -162.351     -76.638
  O     -316.491    -162.939     -76.979
  C     -318.394    -163.119     -75.459
  N     -319.831    -163.301     -75.609
  C     -320.243    -164.567     -76.014
  O     -319.457    -165.484     -76.262
  N     -321.595    -164.743     -76.147
  C     -322.548    -163.790     -75.946
  O     -323.746    -164.009     -76.072
  C     -322.048    -162.458     -75.568
  C     -320.736    -162.276     -75.417
  O     -317.715    -157.876     -72.047
  O     -319.876    -157.257     -73.373
  H     -317.383    -158.537     -71.416
  H     -316.681    -163.856     -77.262
  H     -321.913    -165.657     -76.428
  H     -322.780    -161.670     -75.424
  H     -320.349    -161.300     -75.141
  H     -317.934    -164.110     -75.363
  H     -318.364    -162.326     -77.548
  H     -318.498    -160.411     -76.051
  H     -316.152    -161.696     -74.559
  H     -317.342    -160.564     -72.598
  H     -316.456    -159.491     -73.687
  P     -317.007    -159.117     -77.751
  C     -315.871    -157.009     -76.703
  O     -315.908    -157.951     -77.750
  O     -318.272    -158.461     -77.022
  O     -317.310    -159.717     -79.085
  H     -318.109    -158.264     -76.083
  H     -314.885    -156.538     -76.686
  H     -316.052    -157.481     -75.733
  H     -316.626    -156.238     -76.878
  H     -320.648    -159.184     -69.821
  H     -320.852    -157.721     -70.754
  H     -319.308    -158.082     -70.021

 3  4  5  6  7  8  9  10  11  12  13  24  28  29  30  31  32 0
 6-311+G(2d,p)
 ****
 33  34 0
 6-311+G(2d,p)
 ****
 1  2  14  15  16  17  18  19  20  21  22  23  25  26  27 0
 3-21G
 ****
 35  36  37  38  39  40  41  42  43  44  45 0
 3-21G
 ****


