%nproc=1
%NoSave
%Mem=1900MB
#P OB98/GEN NMR

erre ene a

0 1
  C       -1.560     -59.134     -58.457
  O       -2.119     -58.811     -59.716
  H       -2.266     -59.766     -57.913
  H       -1.381     -58.224     -57.877
  H       -0.626     -59.684     -58.592
  P       -1.248     -57.852     -60.663
  C       -3.158     -56.146     -61.036
  O       -1.887     -56.396     -60.453
  C       -3.559     -54.686     -60.840
  O       -3.776     -54.412     -59.446
  C       -2.518     -53.680     -61.316
  O       -2.639     -53.465     -62.713
  C       -2.926     -52.446     -60.526
  O       -4.031     -51.795     -61.183
  C       -3.391     -53.038     -59.185
  N       -2.197     -51.184     -54.549
  C       -3.183     -50.866     -55.415
  N       -3.408     -51.358     -56.652
  C       -2.489     -52.286     -56.970
  C       -1.426     -52.713     -56.189
  C       -1.297     -52.124     -54.920
  N       -0.289     -52.451     -54.040
  N       -0.688     -53.674     -56.846
  C       -1.332     -53.868     -57.979
  N       -2.407     -53.026     -58.118
  O       -1.094     -58.306     -62.075
  O        0.115     -57.755     -59.828
  H       -4.321     -51.071     -60.597
  H       -0.073     -57.674     -58.876
  H       -3.883     -50.110     -55.071
  H       -1.075     -54.615     -58.721
  H       -4.275     -52.519     -58.797
  H       -2.123     -51.711     -60.451
  H       -1.504     -53.975     -61.024
  H       -4.516     -54.527     -61.355
  H       -3.916     -56.800     -60.588
  H       -0.160     -51.848     -53.243
  H        0.450     -53.053     -54.371
  H       -3.086     -56.382     -62.103
  P       -1.551     -52.599     -63.514
  C       -3.415     -50.922     -64.083
  O       -2.127     -51.103     -63.507
  O       -1.185     -53.148     -64.848
  O       -0.305     -52.509     -62.516
  H        0.494     -52.235     -63.006
  H       -3.692     -49.890     -64.021
  H       -4.130     -51.515     -63.552
  H       -3.392     -51.224     -65.109

 6  7  8  9  10  11  12  13  14  15  25  28  32  33  34  35 0
 6-311+G(2d,p)
 ****
 36  39  40 0
 6-311+G(2d,p)
 ****
 1  2  3  4  5  16  17  18  19  20  21  22  23  24 0
 3-21G
 ****
 26  27  29  30  31  37  38  41  42  43  44  45  46  47 0
 3-21G
 ****
 48 0
 3-21G
 ****


