%nproc=1
%NoSave
%Mem=1900MB
#P OB98/GEN NMR

erre ene a

0 1
  C      412.395     667.157     507.127
  O      412.091     666.226     506.093
  P      411.823     666.622     504.570
  C      413.389     668.330     503.334
  O      413.225     667.045     503.915
  C      414.582     668.415     502.364
  O      415.815     668.096     503.087
  C      414.452     667.367     501.255
  O      413.678     667.653     500.108
  C      415.885     666.969     500.939
  O      416.445     667.708     499.855
  C      416.640     667.279     502.233
  N      420.414     663.993     503.308
  C      420.414     665.070     502.445
  N      421.558     665.286     501.739
  N      419.396     665.869     502.278
  C      418.295     665.496     502.982
  C      418.172     664.436     503.854
  C      419.326     663.599     504.068
  O      419.394     662.630     504.836
  N      416.908     664.363     504.362
  C      416.252     665.346     503.788
  N      417.058     666.074     502.945
  O      410.674     667.535     504.334
  O      411.485     665.211     503.869
  H      417.407     667.583     499.870
  H      410.844     665.401     503.148
  H      421.254     663.432     503.418
  H      415.208     665.599     503.951
  H      417.542     667.860     502.037
  H      415.932     665.908     500.639
  H      422.327     664.642     501.732
  H      413.994     666.480     501.705
  H      421.475     665.932     500.957
  H      414.712     669.426     501.993
  H      413.506     669.033     504.156
  H      412.477     668.617     502.798
  P      412.170     667.154     499.850
  C      409.826     667.647     500.759
  O      411.185     668.047     500.744
  O      412.110     665.728     500.560
  O      411.782     667.036     498.399
  H      411.334     665.219     500.245
  H      409.218     668.493     501.137
  H      409.691     666.781     501.413
  H      409.481     667.393     499.747
  H      412.529     666.633     508.050
  H      411.590     667.855     507.226
  H      413.294     667.682     506.881

 3  4  5  6  7  8  9  10  11  12  23  26  30  31 0
 6-311+G(2d,p)
 ****
 33  35  36  37  38 0
 6-311+G(2d,p)
 ****
 1  2  13  14  15  16  17  18  19  20  21  22  24  25 0
 3-21G
 ****
 27  28  29  32  34  39  40  41  42  43  44  45  46  47  48  49 0
 3-21G
 ****


