%nproc=1
%NoSave
%Mem=1900MB
#P OB98/GEN NMR

erre ene a

0 1
  C      157.397     -64.894    -100.851
  O      156.722     -63.868    -100.106
  P      157.112     -63.488     -98.589
  C      155.385     -64.915     -97.307
  O      156.757     -64.722     -97.620
  C      155.135     -64.895     -95.792
  O      153.702     -64.826     -95.521
  C      155.692     -66.111     -95.039
  O      156.210     -65.622     -93.793
  C      154.437     -66.952     -94.837
  O      154.563     -67.934     -93.811
  C      153.424     -65.840     -94.533
  N      152.018     -66.246     -94.575
  C      151.418     -66.640     -93.378
  O      152.053     -66.704     -92.332
  N      150.077     -66.977     -93.397
  C      149.412     -66.929     -94.507
  N      148.085     -67.263     -94.456
  C      150.013     -66.532     -95.794
  C      151.297     -66.206     -95.758
  O      156.522     -62.186     -98.132
  O      158.709     -63.421     -98.559
  H      158.989     -62.712     -97.949
  H      153.721     -68.407     -93.742
  H      149.418     -66.496     -96.698
  H      151.813     -65.872     -96.654
  H      153.644     -65.408     -93.544
  H      154.206     -67.480     -95.767
  H      156.494     -66.630     -95.571
  H      155.567     -63.964     -95.390
  H      147.709     -67.521     -93.552
  H      155.073     -65.891     -97.701
  H      147.475     -67.247     -95.257
  H      154.788     -64.146     -97.808
  P      157.746     -65.860     -93.416
  C      157.386     -67.374     -91.316
  O      157.849     -67.275     -92.646
  O      157.962     -64.823     -92.208
  O      158.739     -65.608     -94.509
  H      158.900     -64.578     -92.168
  H      156.809     -68.295     -91.207
  H      156.764     -66.519     -91.020
  H      158.258     -67.424     -90.648
  H      156.968     -64.966    -101.828
  H      157.291     -65.831    -100.345
  H      158.435     -64.649    -100.935

 3  4  5  6  7  8  9  10  11  12  13  24  27  28  29  30  32 0
 6-311+G(2d,p)
 ****
 34  35 0
 6-311+G(2d,p)
 ****
 1  2  14  15  16  17  18  19  20  21  22  23  25  26 0
 3-21G
 ****
 31  33  36  37  38  39  40  41  42  43  44  45  46 0
 3-21G
 ****


