%nproc=1
%NoSave
%Mem=1900MB
#P OB98/GEN NMR

erre ene a

0 1
  C      361.480    -300.832     -74.096
  O      361.752    -301.843     -73.147
  H      360.667    -300.205     -73.723
  H      361.171    -301.277     -75.049
  H      362.366    -300.210     -74.248
  P      362.853    -302.936     -73.564
  C      360.770    -304.306     -74.334
  O      362.081    -303.852     -74.638
  C      360.600    -305.747     -74.815
  O      360.706    -305.820     -76.253
  C      361.658    -306.706     -74.279
  O      361.405    -307.115     -72.939
  C      361.499    -307.858     -75.260
  O      360.317    -308.609     -74.933
  C      361.323    -307.094     -76.588
  N      362.587    -306.879     -77.299
  C      363.424    -307.989     -77.440
  O      363.106    -309.081     -76.972
  N      364.633    -307.832     -78.086
  C      364.972    -306.670     -78.552
  N      366.180    -306.572     -79.163
  C      364.113    -305.479     -78.441
  C      362.949    -305.648     -77.813
  O      362.939    -303.893     -72.283
  O      364.170    -302.401     -74.024
  H      360.262    -309.340     -75.574
  H      363.504    -304.678     -72.491
  H      364.441    -304.528     -78.842
  H      362.263    -304.820     -77.691
  H      360.635    -307.622     -77.258
  H      362.343    -308.552     -75.237
  H      362.666    -306.295     -74.378
  H      359.587    -306.076     -74.545
  H      366.779    -307.387     -79.171
  H      360.055    -303.652     -74.847
  H      366.603    -305.675     -79.395
  H      360.592    -304.258     -73.255
  P      362.644    -307.694     -72.097
  C      361.622    -310.049     -71.709
  O      362.658    -309.285     -72.310
  O      362.154    -307.531     -70.581
  O      363.954    -307.007     -72.342
  H      362.888    -307.258     -70.001
  H      361.764    -311.085     -71.937
  H      360.675    -309.727     -72.089
  H      361.647    -309.911     -70.648

 6  7  8  9  10  11  12  13  14  15  16  26  30  31  32  33  35 0
 6-311+G(2d,p)
 ****
 37  38 0
 6-311+G(2d,p)
 ****
 1  2  3  4  5  17  18  19  20  21  22  23  24  25 0
 3-21G
 ****
 27  28  29  34  36  39  40  41  42  43  44  45  46 0
 3-21G
 ****


