%nproc=1
%NoSave
%Mem=1900MB
#P OB98/GEN NMR

erre ene a

0 1
  C      248.509     -63.161     -23.507
  O      247.440     -62.329     -23.054
  P      246.622     -62.541     -21.699
  C      247.610     -60.538     -20.306
  O      247.485     -61.946     -20.493
  C      248.258     -60.215     -18.953
  O      247.430     -60.783     -17.888
  C      249.659     -60.828     -18.805
  O      250.610     -59.962     -18.202
  C      249.382     -62.150     -18.106
  O      250.517     -62.706     -17.468
  C      248.214     -61.783     -17.193
  N      247.934     -66.308     -14.847
  C      249.038     -65.529     -15.113
  N      250.233     -66.020     -14.726
  N      248.978     -64.376     -15.724
  C      247.737     -64.037     -16.138
  C      246.562     -64.733     -15.944
  C      246.629     -65.987     -15.220
  O      245.676     -66.708     -14.935
  N      245.497     -64.076     -16.485
  C      246.023     -62.981     -17.026
  N      247.387     -62.923     -16.829
  O      246.028     -63.900     -21.496
  O      245.402     -61.494     -21.823
  H      251.242     -62.745     -18.123
  H      244.643     -61.895     -21.355
  H      248.033     -67.180     -14.346
  H      245.471     -62.213     -17.550
  H      248.549     -61.345     -16.254
  H      249.053     -62.869     -18.866
  H      250.362     -66.950     -14.357
  H      250.098     -61.036     -19.793
  H      251.047     -65.554     -15.122
  H      248.282     -59.126     -18.817
  H      246.597     -60.138     -20.334
  H      248.167     -60.088     -21.131
  P      251.999     -59.435     -18.783
  C      250.971     -57.101     -19.129
  O      251.707     -58.166     -19.724
  O      252.459     -60.556     -19.831
  O      253.066     -59.215     -17.763
  H      253.304     -60.938     -19.548
  H      250.618     -56.440     -19.925
  H      251.621     -56.540     -18.458
  H      250.115     -57.494     -18.585
  H      248.877     -62.792     -24.442
  H      248.153     -64.162     -23.634
  H      249.298     -63.152     -22.785

 3  4  5  6  7  8  9  10  11  12  23  26  30  31 0
 6-311+G(2d,p)
 ****
 33  35  36  37  38 0
 6-311+G(2d,p)
 ****
 1  2  13  14  15  16  17  18  19  20  21  22  24  25 0
 3-21G
 ****
 27  28  29  32  34  39  40  41  42  43  44  45  46  47  48  49 0
 3-21G
 ****


