%nproc=1
%NoSave
%Mem=1900MB
#P OB98/GEN NMR

erre ene a

0 1
  C      -67.250    -232.592       8.599
  O      -67.658    -232.087       7.345
  H      -66.673    -231.821       9.120
  H      -66.616    -233.473       8.463
  H      -68.122    -232.851       9.207
  P      -68.521    -233.069       6.415
  C      -70.674    -232.706       7.817
  O      -70.052    -232.583       6.547
  C      -72.008    -231.955       7.832
  O      -71.758    -230.560       8.166
  C      -72.753    -231.982       6.489
  O      -74.158    -232.089       6.743
  C      -72.459    -230.609       5.904
  O      -73.436    -230.214       4.947
  C      -72.433    -229.762       7.173
  N      -73.151    -224.782       7.008
  C      -74.031    -225.805       7.294
  N      -75.307    -225.453       7.577
  N      -73.697    -227.070       7.296
  C      -72.384    -227.278       7.025
  C      -71.413    -226.355       6.714
  C      -71.805    -224.959       6.692
  O      -71.073    -224.008       6.426
  N      -70.208    -226.968       6.464
  C      -70.454    -228.256       6.622
  N      -71.760    -228.494       6.967
  O      -68.505    -234.455       7.219
  O      -68.031    -233.225       5.016
  H      -74.312    -230.228       5.391
  H      -68.562    -235.212       6.609
  H      -73.463    -223.828       7.005
  H      -69.733    -229.053       6.497
  H      -73.441    -229.533       7.540
  H      -71.477    -230.612       5.415
  H      -75.631    -224.499       7.624
  H      -72.436    -232.793       5.828
  H      -75.966    -226.191       7.804
  H      -72.630    -232.362       8.636
  H      -70.012    -232.289       8.584
  H      -70.845    -233.766       8.036
  P      -74.846    -233.524       6.535
  C      -74.525    -234.595       8.880
  O      -75.432    -234.025       7.945
  O      -73.588    -234.490       6.291
  O      -75.798    -233.577       5.387
  H      -73.559    -234.760       5.354
  H      -75.056    -234.879       9.764
  H      -73.773    -233.876       9.131
  H      -74.063    -235.458       8.448

 6  7  8  9  10  11  12  13  14  15  26  29  33  34 0
 6-311+G(2d,p)
 ****
 36  38  39  40  41 0
 6-311+G(2d,p)
 ****
 1  2  3  4  5  16  17  18  19  20  21  22  23  24  25 0
 3-21G
 ****
 27  28  30  31  32  35  37  42  43  44  45  46  47 0
 3-21G
 ****
 48  49 0
 3-21G
 ****


