%nproc=1
%NoSave
%Mem=1900MB
#P OB98/GEN NMR

erre ene a

0 1
  C     -435.753    -460.322     833.786
  O     -436.416    -459.053     833.727
  P     -435.794    -457.836     834.566
  C     -435.038    -455.983     832.901
  O     -434.672    -457.116     833.677
  C     -434.936    -456.303     831.402
  O     -435.763    -457.430     831.038
  C     -435.390    -455.164     830.505
  O     -434.363    -454.199     830.331
  C     -435.643    -455.903     829.201
  O     -434.392    -456.133     828.517
  C     -436.234    -457.232     829.686
  N     -440.424    -458.298     826.931
  C     -439.102    -458.336     826.626
  N     -438.050    -458.021     827.404
  C     -438.458    -457.641     828.626
  C     -439.768    -457.549     829.084
  C     -440.780    -457.894     828.173
  N     -442.113    -457.853     828.489
  N     -439.797    -457.110     830.391
  C     -438.532    -456.960     830.724
  N     -437.684    -457.258     829.689
  O     -434.943    -458.579     835.702
  O     -436.823    -456.926     835.162
  H     -433.789    -456.550     829.164
  H     -434.972    -458.061     836.527
  H     -438.863    -458.673     825.619
  H     -438.178    -456.639     831.696
  H     -435.891    -458.083     829.088
  H     -436.281    -455.338     828.510
  H     -436.321    -454.717     830.872
  H     -433.890    -456.555     831.185
  H     -434.399    -455.134     833.148
  H     -442.785    -458.147     827.798
  H     -442.385    -457.579     829.426
  H     -436.059    -455.688     833.166
  P     -434.432    -452.878     831.242
  C     -431.958    -453.263     831.902
  O     -433.283    -453.047     832.338
  O     -435.792    -453.086     832.064
  O     -434.433    -451.597     830.473
  H     -436.196    -452.216     832.273
  H     -431.276    -453.052     832.734
  H     -431.700    -452.607     831.069
  H     -431.829    -454.307     831.606
  H     -436.281    -461.029     833.180
  H     -435.731    -460.666     834.799
  H     -434.752    -460.219     833.423

 3  4  5  6  7  8  9  10  11  12  22  25  29  30  31  32 0
 6-311+G(2d,p)
 ****
 33  36  37 0
 6-311+G(2d,p)
 ****
 1  2  13  14  15  16  17  18  19  20  21  23  24  26 0
 3-21G
 ****
 27  28  34  35  38  39  40  41  42  43  44  45  46  47  48 0
 3-21G
 ****


