%nproc=1
%NoSave
%Mem=1900MB
#P OB98/GEN NMR

erre ene a

0 1
  C       72.658     -11.629    -926.771
  O       73.539     -12.171    -927.738
  P       74.477     -13.393    -927.283
  C       73.894     -15.250    -929.013
  O       74.796     -14.221    -928.613
  C       73.599     -15.145    -930.514
  O       72.819     -13.961    -930.787
  C       74.838     -15.041    -931.382
  O       75.446     -16.308    -931.532
  C       74.246     -14.474    -932.673
  O       73.760     -15.531    -933.519
  C       73.087     -13.594    -932.159
  N       73.352     -12.169    -932.296
  C       73.286     -11.652    -933.589
  O       73.023     -12.398    -934.545
  N       73.542     -10.316    -933.785
  C       73.858      -9.571    -932.777
  N       74.105      -8.255    -933.015
  C       73.967     -10.080    -931.386
  C       73.715     -11.378    -931.219
  O       73.464     -14.354    -926.489
  O       75.651     -13.004    -926.455
  H       74.561     -15.999    -933.847
  H       73.932     -14.892    -925.828
  H       74.237      -9.413    -930.574
  H       73.771     -11.831    -930.237
  H       72.166     -13.818    -932.712
  H       74.987     -13.925    -933.250
  H       75.550     -14.323    -930.960
  H       72.998     -16.022    -930.805
  H       74.031      -7.936    -933.981
  H       72.947     -15.140    -928.468
  H       74.334      -7.580    -932.299
  H       74.328     -16.220    -928.776
  P       77.047     -16.350    -931.601
  C       77.011     -17.195    -929.176
  O       77.481     -17.429    -930.492
  O       77.461     -14.970    -930.908
  O       77.665     -16.516    -932.956
  H       78.424     -14.832    -930.979
  H       77.227     -18.075    -928.561
  H       75.932     -17.037    -929.170
  H       77.521     -16.328    -928.755
  H       72.098     -10.828    -927.207
  H       73.223     -11.258    -925.941
  H       71.987     -12.391    -926.433

 3  4  5  6  7  8  9  10  11  12  13  21  23  27  28  29  30  32 0
 6-311+G(2d,p)
 ****
 34  35 0
 6-311+G(2d,p)
 ****
 1  2  14  15  16  17  18  19  20  22  24  25  26 0
 3-21G
 ****
 31  33  36  37  38  39  40  41  42  43  44  45  46 0
 3-21G
 ****


