%nproc=1
%NoSave
%Mem=1900MB
#P OB98/GEN NMR

erre ene a

0 1
  C     -899.545    -309.292    -324.500
  O     -898.125    -309.161    -324.394
  P     -897.365    -308.230    -325.463
  C     -896.805    -306.320    -323.774
  O     -897.515    -306.723    -324.942
  C     -895.585    -305.447    -324.165
  O     -896.005    -304.484    -325.135
  C     -894.995    -304.660    -323.011
  O     -894.175    -305.476    -322.191
  C     -894.255    -303.557    -323.718
  O     -892.965    -303.992    -324.148
  C     -895.165    -303.279    -324.950
  N     -895.955    -302.066    -324.811
  C     -895.265    -300.887    -324.716
  O     -894.045    -300.827    -324.723
  N     -896.025    -299.747    -324.584
  C     -897.395    -299.698    -324.454
  O     -897.995    -298.648    -324.267
  C     -898.105    -300.997    -324.530
  C     -897.355    -302.114    -324.702
  O     -898.315    -308.262    -326.754
  O     -895.975    -308.662    -325.788
  H     -892.625    -303.273    -324.739
  H     -897.775    -308.227    -327.561
  H     -895.525    -298.866    -324.523
  H     -899.155    -300.987    -324.455
  H     -897.835    -303.082    -324.763
  H     -894.545    -303.205    -325.848
  H     -894.095    -302.669    -323.093
  H     -895.835    -304.208    -322.408
  H     -894.835    -306.108    -324.609
  H     -896.445    -307.201    -323.251
  H     -897.465    -305.784    -323.094
  P     -894.245    -305.247    -320.598
  C     -896.385    -306.729    -320.246
  O     -895.825    -305.455    -320.227
  O     -894.005    -303.659    -320.528
  O     -893.265    -306.077    -319.833
  H     -894.385    -303.195    -321.287
  H     -895.665    -307.501    -319.913
  H     -896.715    -306.977    -321.272
  H     -897.235    -306.732    -319.555
  H     -899.902    -309.938    -323.725
  H     -899.794    -309.707    -325.454
  H     -900.000    -308.329    -324.400

 3  4  5  6  7  8  9  10  11  12  13  23  28  29  30  31  32 0
 6-311+G(2d,p)
 ****
 33  34 0
 6-311+G(2d,p)
 ****
 1  2  14  15  16  17  18  19  20  21  22  24  25  26 0
 3-21G
 ****
 27  35  36  37  38  39  40  41  42  43  44  45 0
 3-21G
 ****


