%nproc=1
%NoSave
%Mem=1900MB
#P OB98/GEN NMR

erre ene a

0 1
  C     -426.708     135.648    -100.491
  O     -427.738     134.655    -100.573
  P     -429.241     135.129    -100.268
  C     -430.385     133.364    -101.809
  O     -430.221     133.880    -100.494
  C     -431.457     132.264    -101.823
  O     -430.911     131.002    -101.396
  C     -432.605     132.545    -100.871
  O     -433.493     133.498    -101.427
  C     -433.221     131.157    -100.693
  O     -434.234     130.898    -101.679
  C     -432.011     130.216    -100.894
  N     -431.640     129.505     -99.673
  C     -432.254     128.267     -99.480
  O     -433.072     127.838    -100.299
  N     -431.945     127.555     -98.346
  C     -431.118     128.050     -97.474
  N     -430.855     127.299     -96.368
  C     -430.471     129.372     -97.633
  C     -430.777     130.043     -98.744
  O     -429.579     136.090    -101.508
  O     -429.404     135.833     -98.961
  H     -434.981     131.489    -101.459
  H     -430.183     136.801    -101.226
  H     -429.793     129.745     -96.877
  H     -430.346     131.020     -98.943
  H     -432.234     129.465    -101.667
  H     -433.693     131.050     -99.713
  H     -432.219     132.902     -99.906
  H     -431.835     132.159    -102.850
  H     -431.315     126.406     -96.294
  H     -429.440     132.958    -102.176
  H     -430.235     127.592     -95.630
  H     -430.657     134.184    -102.483
  P     -433.399     135.010    -100.898
  C     -433.631     135.572    -103.401
  O     -434.020     135.905    -102.082
  O     -431.828     135.313    -101.046
  O     -433.892     135.290     -99.520
  H     -431.616     136.180    -100.665
  H     -434.267     136.106    -104.106
  H     -433.725     134.495    -103.575
  H     -432.590     135.882    -103.567
  H     -425.762     135.200    -100.716
  H     -426.684     136.056     -99.502
  H     -426.909     136.429    -101.194

 3  4  5  6  7  8  9  10  11  12  13  21  23  27  28  29  30  32 0
 6-311+G(2d,p)
 ****
 34  35 0
 6-311+G(2d,p)
 ****
 1  2  14  15  16  17  18  19  20  22  24  25  26 0
 3-21G
 ****
 31  33  36  37  38  39  40  41  42  43  44  45  46 0
 3-21G
 ****


