%nproc=1
%NoSave
%Mem=1900MB
#P OB98/GEN NMR

erre ene a

0 1
  C     -126.333     465.996    1102.902
  O     -126.991     465.114    1102.008
  P     -128.595     465.206    1101.908
  C     -128.958     464.398    1104.387
  O     -129.166     464.183    1103.000
  C     -130.042     463.686    1105.199
  O     -131.303     464.379    1105.040
  C     -130.299     462.251    1104.775
  O     -129.311     461.365    1105.261
  C     -131.695     462.021    1105.369
  O     -131.598     461.737    1106.775
  C     -132.358     463.396    1105.158
  N     -133.253     463.434    1104.003
  C     -134.570     463.043    1104.228
  O     -134.991     462.689    1105.332
  N     -135.398     463.066    1103.129
  C     -135.014     463.361    1101.865
  O     -135.798     463.323    1100.905
  C     -133.616     463.730    1101.666
  C     -132.796     463.752    1102.732
  O     -128.835     464.490    1100.496
  O     -129.102     466.603    1101.987
  H     -128.131     463.841    1100.297
  H     -131.131     462.494    1107.178
  H     -136.359     462.807    1103.272
  H     -133.278     463.971    1100.664
  H     -131.754     464.005    1102.615
  H     -132.933     463.680    1106.048
  H     -132.220     461.185    1104.895
  H     -130.361     462.184    1103.686
  H     -129.761     463.737    1106.255
  H     -129.000     465.477    1104.590
  H     -127.962     464.031    1104.655
  P     -128.313     460.734    1104.159
  C     -129.980     458.876    1103.363
  O     -128.751     459.201    1103.994
  O     -126.950     460.665    1104.982
  O     -128.244     461.522    1102.891
  H     -127.067     460.362    1105.895
  H     -129.936     457.839    1103.026
  H     -130.158     459.524    1102.492
  H     -130.801     458.984    1104.075
  H     -125.278     465.822    1102.863
  H     -126.686     465.824    1103.897
  H     -126.538     467.008    1102.621

 3  4  5  6  7  8  9  10  11  12  13  24  28  29  30  31  32 0
 6-311+G(2d,p)
 ****
 33  34 0
 6-311+G(2d,p)
 ****
 1  2  14  15  16  17  18  19  20  21  22  23  25  26  27 0
 3-21G
 ****
 35  36  37  38  39  40  41  42  43  44  45 0
 3-21G
 ****


