%nproc=1
%NoSave
%Mem=1900MB
#P OB98/GEN NMR

erre ene a

0 1
  C      249.357     127.407     209.600
  O      249.524     128.381     208.594
  H      249.961     127.692     210.465
  H      249.704     126.438     209.233
  H      248.313     127.329     209.913
  P      248.438     128.472     207.424
  C      246.874     129.906     208.893
  O      247.002     128.737     208.094
  C      245.593     130.675     208.569
  O      245.661     131.185     207.220
  C      244.343     129.793     208.646
  O      243.770     129.698     209.939
  C      243.400     130.499     207.677
  O      242.641     131.524     208.340
  C      244.349     131.118     206.644
  N      241.939     129.842     202.320
  C      241.440     130.500     203.428
  N      240.129     130.819     203.385
  N      242.163     130.793     204.477
  C      243.429     130.321     204.414
  C      244.029     129.640     203.379
  C      243.243     129.385     202.191
  O      243.642     128.822     201.178
  N      245.319     129.284     203.690
  C      245.465     129.673     204.941
  N      244.375     130.378     205.395
  O      248.307     126.955     206.918
  O      248.792     129.378     206.284
  H      242.025     131.912     207.690
  H      248.095     126.945     205.967
  H      241.343     129.670     201.530
  H      246.349     129.513     205.546
  H      244.056     132.146     206.399
  H      242.677     129.796     207.255
  H      239.508     130.542     202.643
  H      244.551     128.794     208.252
  H      239.680     131.130     204.249
  H      245.513     131.542     209.236
  H      247.746     130.525     208.680
  H      246.906     129.646     209.955
  P      242.630     128.623     210.253
  C      244.249     126.757     211.143
  O      243.281     127.168     210.202
  O      241.718     128.667     208.940
  O      241.837     128.873     211.494
  H      240.932     129.224     209.085
  H      244.551     125.753     210.929
  H      243.831     126.801     212.127
  H      245.099     127.405     211.087

 6  7  8  9  10  11  12  13  14  15  26  29  33  34 0
 6-311+G(2d,p)
 ****
 36  38  39  40  41 0
 6-311+G(2d,p)
 ****
 1  2  3  4  5  16  17  18  19  20  21  22  23  24  25 0
 3-21G
 ****
 27  28  30  31  32  35  37  42  43  44  45  46  47 0
 3-21G
 ****
 48  49 0
 3-21G
 ****


