%nproc=1
%NoSave
%Mem=1900MB
#P OB98/GEN NMR

erre ene a

0 1
  C       13.913      85.595     -28.057
  O       13.788      86.097     -26.746
  H       14.922      85.819     -28.418
  H       13.194      86.073     -28.725
  H       13.772      84.511     -28.066
  P       12.346      86.077     -26.038
  C       11.872      88.597     -25.970
  O       12.271      87.461     -25.213
  C       12.613      89.858     -25.520
  O       11.879      90.496     -24.443
  C       14.036      89.593     -25.016
  O       14.932      90.541     -25.600
  C       13.935      89.817     -23.514
  O       15.190      90.159     -22.935
  C       12.845      90.893     -23.451
  N       12.243      91.018     -22.129
  C       12.764      92.014     -21.297
  O       13.708      92.710     -21.678
  N       12.234      92.176     -20.044
  C       11.299      91.379     -19.632
  N       10.823      91.583     -18.375
  C       10.752      90.282     -20.458
  C       11.259      90.165     -21.685
  O       12.062      84.852     -25.236
  O       11.309      86.315     -27.233
  H       15.496      91.004     -23.332
  H       10.411      86.006     -26.955
  H        9.981      89.636     -20.066
  H       10.911      89.395     -22.364
  H       13.248      91.873     -23.742
  H       13.577      88.899     -23.031
  H       14.396      88.593     -25.246
  H       12.612      90.572     -26.353
  H       11.223      92.346     -17.843
  H       10.790      88.731     -25.859
  H       10.101      91.020     -17.949
  H       12.104      88.404     -27.024
  P       16.066      89.940     -26.566
  C       18.323      91.035     -25.919
  O       17.189      91.069     -26.773
  O       15.330      89.865     -27.986
  O       16.574      88.605     -26.134
  H       15.035      88.953     -28.164
  H       18.982      91.840     -26.169
  H       18.835      90.103     -26.042
  H       18.007      91.136     -24.902

 6  7  8  9  10  11  12  13  14  15  16  26  30  31  32  33  35 0
 6-311+G(2d,p)
 ****
 37  38 0
 6-311+G(2d,p)
 ****
 1  2  3  4  5  17  18  19  20  21  22  23  24  25 0
 3-21G
 ****
 27  28  29  34  36  39  40  41  42  43  44  45  46 0
 3-21G
 ****


