%nproc=1
%NoSave
%Mem=1900MB
#P OB98/GEN NMR

erre ene a

0 1
  C      -25.483     217.679    -127.438
  O      -25.051     216.861    -126.345
  P      -26.174     216.400    -125.294
  C      -26.982     213.965    -125.656
  O      -26.021     214.818    -125.051
  C      -26.456     212.530    -125.781
  O      -25.373     212.457    -126.751
  C      -25.915     211.956    -124.465
  O      -26.193     210.549    -124.456
  C      -24.419     212.156    -124.595
  O      -23.696     211.308    -123.705
  C      -24.234     211.871    -126.085
  N      -19.375     210.808    -127.236
  C      -20.372     210.050    -126.738
  N      -21.638     210.415    -126.437
  C      -21.838     211.705    -126.747
  C      -20.916     212.608    -127.252
  C      -19.626     212.114    -127.501
  N      -18.600     212.894    -127.984
  N      -21.488     213.860    -127.391
  C      -22.729     213.712    -126.972
  N      -22.997     212.425    -126.602
  O      -27.531     216.525    -126.133
  O      -26.219     217.233    -124.055
  H      -22.736     211.462    -123.848
  H      -28.047     217.289    -125.818
  H      -20.120     209.006    -126.549
  H      -23.466     214.499    -126.911
  H      -24.224     210.796    -126.306
  H      -24.159     213.197    -124.362
  H      -26.322     212.422    -123.562
  H      -27.273     211.896    -126.150
  H      -27.245     214.340    -126.651
  H      -17.695     212.469    -128.106
  H      -18.762     213.879    -128.140
  H      -27.908     214.001    -125.070
  P      -26.972     209.983    -123.175
  C      -29.366     210.452    -124.065
  O      -28.399     209.483    -123.705
  O      -27.319     211.298    -122.331
  O      -26.192     208.992    -122.374
  H      -27.419     211.074    -121.386
  H      -29.881     210.114    -124.969
  H      -28.915     211.430    -124.262
  H      -30.093     210.548    -123.257
  H      -24.645     217.915    -128.060
  H      -25.912     218.583    -127.059
  H      -26.215     217.150    -128.012

 3  4  5  6  7  8  9  10  11  12  22  25  29  30  31  32 0
 6-311+G(2d,p)
 ****
 33  36  37 0
 6-311+G(2d,p)
 ****
 1  2  13  14  15  16  17  18  19  20  21  23  24  26 0
 3-21G
 ****
 27  28  34  35  38  39  40  41  42  43  44  45  46  47  48 0
 3-21G
 ****


