%nproc=1
%NoSave
%Mem=1900MB
#P OB98/GEN NMR

erre ene a

0 1
  C      -82.741     309.285     -84.945
  O      -83.937     309.060     -85.673
  P      -85.209     309.967     -85.311
  C      -86.536     307.748     -84.976
  O      -86.230     309.046     -84.488
  C      -87.626     307.115     -84.110
  O      -87.086     306.706     -82.835
  C      -88.771     308.065     -83.782
  O      -89.673     308.191     -84.870
  C      -89.386     307.398     -82.559
  O      -90.292     306.351     -82.944
  C      -88.142     306.809     -81.859
  N      -87.730     307.595     -80.697
  C      -88.628     307.622     -79.634
  O      -89.714     307.042     -79.660
  N      -88.251     308.365     -78.550
  C      -87.115     309.121     -78.451
  O      -86.859     309.814     -77.473
  C      -86.219     309.077     -79.620
  C      -86.566     308.338     -80.673
  O      -85.939     310.179     -86.720
  O      -84.878     311.265     -84.654
  H      -90.637     305.965     -82.115
  H      -86.332     311.074     -86.757
  H      -88.872     308.376     -77.759
  H      -85.310     309.665     -79.573
  H      -85.928     308.306     -81.549
  H      -88.347     305.784     -81.526
  H      -89.955     308.101     -81.944
  H      -88.374     309.046     -83.490
  H      -88.005     306.222     -84.624
  H      -85.638     307.126     -84.948
  H      -86.870     307.827     -86.015
  P      -90.772     309.360     -84.774
  C      -92.715     307.614     -84.718
  O      -92.040     308.682     -84.079
  O      -91.170     309.516     -86.318
  O      -90.247     310.602     -84.135
  H      -91.117     308.674     -86.798
  H      -92.020     306.971     -85.263
  H      -93.457     308.018     -85.410
  H      -93.226     307.017     -83.959
  H      -81.982     308.614     -85.290
  H      -82.920     309.116     -83.904
  H      -82.418     310.294     -85.092

 3  4  5  6  7  8  9  10  11  12  13  23  28  29  30  31  32 0
 6-311+G(2d,p)
 ****
 33  34 0
 6-311+G(2d,p)
 ****
 1  2  14  15  16  17  18  19  20  21  22  24  25  26 0
 3-21G
 ****
 27  35  36  37  38  39  40  41  42  43  44  45 0
 3-21G
 ****


