%nproc=1
%NoSave
%Mem=1900MB
#P OB98/GEN NMR

erre ene a

0 1
  C      -73.245    -260.608    -877.861
  O      -72.083    -260.821    -878.642
  H      -73.121    -261.063    -876.875
  H      -73.391    -259.530    -877.735
  H      -74.119    -261.024    -878.367
  P      -71.693    -262.346    -878.960
  C      -73.183    -262.199    -881.086
  O      -71.914    -262.533    -880.539
  C      -73.022    -261.773    -882.542
  O      -72.371    -260.489    -882.612
  C      -72.162    -262.719    -883.377
  O      -72.890    -263.847    -883.827
  C      -71.794    -261.803    -884.535
  O      -72.911    -261.686    -885.439
  C      -71.547    -260.472    -883.815
  N      -67.757    -257.043    -883.495
  C      -69.026    -256.949    -883.944
  N      -69.979    -257.904    -884.000
  C      -69.497    -259.071    -883.526
  C      -68.224    -259.324    -883.041
  C      -67.330    -258.237    -883.027
  N      -66.030    -258.336    -882.586
  N      -68.092    -260.649    -882.677
  C      -69.278    -261.179    -882.907
  N      -70.157    -260.266    -883.434
  O      -72.901    -263.182    -878.321
  O      -70.359    -262.788    -878.458
  H      -73.705    -261.562    -884.883
  H      -72.618    -264.107    -878.166
  H      -69.326    -255.966    -884.312
  H      -69.549    -262.211    -882.717
  H      -71.853    -259.609    -884.415
  H      -70.941    -262.173    -885.117
  H      -71.247    -263.012    -882.840
  H      -74.025    -261.667    -882.979
  H      -73.613    -261.372    -880.510
  H      -65.426    -257.559    -882.791
  H      -65.656    -259.254    -882.383
  H      -73.851    -263.066    -881.013
  P      -72.138    -265.265    -883.823
  C      -72.782    -265.718    -881.345
  O      -72.858    -266.145    -882.699
  O      -70.717    -264.921    -883.164
  O      -71.997    -265.901    -885.161
  H      -70.029    -265.543    -883.459
  H      -73.310    -266.410    -880.723
  H      -73.222    -264.747    -881.252
  H      -71.757    -265.676    -881.041

 6  7  8  9  10  11  12  13  14  15  25  28  32  33  34  35 0
 6-311+G(2d,p)
 ****
 36  39  40 0
 6-311+G(2d,p)
 ****
 1  2  3  4  5  16  17  18  19  20  21  22  23  24 0
 3-21G
 ****
 26  27  29  30  31  37  38  41  42  43  44  45  46  47 0
 3-21G
 ****
 48 0
 3-21G
 ****


