%nproc=1
%NoSave
%Mem=1900MB
#P OB98/GEN NMR

erre ene a

0 1
  C        1.856       1.634     -17.101
  O        0.591       1.340     -17.650
  H        1.716       2.275     -16.227
  H        2.460       2.172     -17.838
  H        2.379       0.726     -16.791
  P        0.454       0.093     -18.643
  C        0.646      -2.464     -18.364
  O        1.081      -1.189     -17.909
  C        1.775      -3.496     -18.335
  O        2.670      -3.287     -19.449
  C        2.633      -3.382     -17.075
  O        2.132      -4.058     -15.937
  C        3.951      -3.996     -17.540
  O        3.927      -5.426     -17.401
  C        4.006      -3.602     -19.017
  N        8.487      -1.972     -20.848
  C        8.017      -3.264     -20.724
  N        8.874      -4.247     -21.078
  N        6.826      -3.558     -20.275
  C        6.117      -2.479     -19.869
  C        6.482      -1.152     -19.930
  C        7.784      -0.834     -20.480
  O        8.251       0.294     -20.605
  N        5.498      -0.336     -19.427
  C        4.575      -1.171     -18.996
  N        4.893      -2.481     -19.266
  O        1.538       0.401     -19.785
  O       -0.908      -0.108     -19.234
  H        3.740      -5.641     -16.469
  H        1.275      -0.032     -20.617
  H        9.403      -1.803     -21.226
  H        3.650      -0.880     -18.509
  H        4.355      -4.433     -19.642
  H        4.796      -3.635     -16.947
  H        9.838      -4.075     -21.317
  H        2.813      -2.331     -16.830
  H        8.672      -5.195     -20.756
  H        1.349      -4.500     -18.445
  H        0.292      -2.328     -19.387
  H       -0.203      -2.810     -17.769
  P        2.670      -3.678     -14.478
  C        2.599      -1.460     -13.120
  O        2.681      -2.079     -14.385
  O        4.219      -4.067     -14.559
  O        1.981      -4.373     -13.354
  H        4.364      -4.956     -14.185
  H        2.619      -0.397     -13.241
  H        3.429      -1.766     -12.519
  H        1.686      -1.747     -12.641

 6  7  8  9  10  11  12  13  14  15  26  29  33  34 0
 6-311+G(2d,p)
 ****
 36  38  39  40  41 0
 6-311+G(2d,p)
 ****
 1  2  3  4  5  16  17  18  19  20  21  22  23  24  25 0
 3-21G
 ****
 27  28  30  31  32  35  37  42  43  44  45  46  47 0
 3-21G
 ****
 48  49 0
 3-21G
 ****


