%nproc=1
%NoSave
%Mem=1900MB
#P OB98/GEN NMR

erre ene a

0 1
  C       99.709      47.958     -94.333
  O      100.036      48.005     -95.732
  P      100.526      46.661     -96.467
  C      102.368      46.761     -98.321
  O      101.028      47.036     -97.943
  C      102.678      47.412     -99.672
  O      101.659      47.079    -100.642
  C      102.718      48.933     -99.641
  O      103.920      49.422     -99.072
  C      102.569      49.267    -101.123
  O      103.834      49.180    -101.800
  C      101.614      48.155    -101.604
  N      100.249      48.635    -101.807
  C       99.570      48.120    -102.907
  O      100.085      47.352    -103.716
  N       98.282      48.553    -103.065
  C       97.643      49.478    -102.288
  O       96.490      49.838    -102.495
  C       98.439      50.044    -101.190
  C       99.687      49.609    -101.006
  O       99.133      45.921     -96.769
  O      101.430      45.779     -95.671
  H      103.687      49.513    -102.707
  H       99.277      44.957     -96.798
  H       97.761      48.170    -103.839
  H       97.976      50.798    -100.564
  H      100.286      50.015    -100.199
  H      101.979      47.731    -102.548
  H      102.189      50.280    -101.286
  H      101.846      49.317     -99.100
  H      103.636      47.010    -100.034
  H      102.504      45.678     -98.407
  H      103.042      47.138     -97.547
  P      103.768      50.452     -97.848
  C      106.027      51.667     -98.351
  O      105.265      50.876     -97.466
  O      103.304      49.464     -96.676
  O      102.819      51.570     -98.135
  H      103.700      48.580     -96.763
  H      105.399      52.371     -98.905
  H      106.553      51.018     -99.057
  H      106.763      52.234     -97.774
  H       99.404      48.930     -94.005
  H      100.568      47.647     -93.776
  H       98.912      47.262     -94.176

 3  4  5  6  7  8  9  10  11  12  13  23  28  29  30  31  32 0
 6-311+G(2d,p)
 ****
 33  34 0
 6-311+G(2d,p)
 ****
 1  2  14  15  16  17  18  19  20  21  22  24  25  26 0
 3-21G
 ****
 27  35  36  37  38  39  40  41  42  43  44  45 0
 3-21G
 ****


