%nproc=1
%NoSave
%Mem=1900MB
#P OB98/GEN NMR

erre ene a

0 1
  C     -206.868    -161.348     -76.959
  O     -206.483    -161.792     -75.655
  P     -207.430    -161.331     -74.445
  C     -206.657    -158.857     -74.522
  O     -207.741    -159.767     -74.643
  C     -207.104    -157.553     -73.851
  O     -205.969    -156.887     -73.217
  C     -207.731    -156.543     -74.825
  O     -208.761    -155.859     -74.099
  C     -206.566    -155.613     -75.118
  O     -206.961    -154.383     -75.700
  C     -205.943    -155.533     -73.728
  N     -203.161    -151.260     -73.550
  C     -204.497    -151.471     -73.549
  N     -205.161    -152.643     -73.604
  C     -204.297    -153.670     -73.656
  C     -202.913    -153.617     -73.667
  C     -202.338    -152.334     -73.608
  N     -200.981    -152.109     -73.630
  N     -202.372    -154.890     -73.750
  C     -203.423    -155.684     -73.862
  N     -204.598    -155.004     -73.726
  O     -206.461    -161.373     -73.172
  O     -208.639    -162.190     -74.271
  H     -206.191    -153.784     -75.766
  H     -206.600    -162.194     -72.666
  H     -205.113    -150.574     -73.503
  H     -203.386    -156.749     -74.041
  H     -206.535    -154.911     -73.043
  H     -205.879    -156.104     -75.821
  H     -208.167    -157.005     -75.717
  H     -207.819    -157.802     -73.058
  H     -206.247    -158.629     -75.511
  H     -200.663    -151.155     -73.592
  H     -200.333    -152.881     -73.684
  H     -205.849    -159.337     -73.956
  P     -210.253    -156.447     -74.129
  C     -210.963    -154.992     -76.121
  O     -210.710    -156.307     -75.665
  O     -211.061    -155.238     -73.450
  O     -210.458    -157.769     -73.467
  H     -210.839    -154.389     -73.868
  H     -211.181    -155.029     -77.196
  H     -210.082    -154.363     -75.960
  H     -211.824    -154.571     -75.597
  H     -206.168    -161.713     -77.681
  H     -206.879    -160.278     -76.983
  H     -207.845    -161.720     -77.189

 3  4  5  6  7  8  9  10  11  12  22  25  29  30  31  32 0
 6-311+G(2d,p)
 ****
 33  36  37 0
 6-311+G(2d,p)
 ****
 1  2  13  14  15  16  17  18  19  20  21  23  24  26 0
 3-21G
 ****
 27  28  34  35  38  39  40  41  42  43  44  45  46  47  48 0
 3-21G
 ****


