%nproc=1
%NoSave
%Mem=1900MB
#P OB98/GEN NMR

erre ene a

0 1
  C     -892.240     240.108    -484.100
  O     -892.740     239.918    -485.414
  H     -892.580     239.268    -483.475
  H     -892.640     241.037    -483.676
  H     -891.150     240.125    -484.099
  P     -892.430     241.039    -486.514
  C     -892.840     239.431    -488.501
  O     -893.250     240.619    -487.836
  C     -894.010     238.802    -489.256
  O     -894.960     238.315    -488.261
  C     -894.740     239.810    -490.161
  O     -894.880     239.370    -491.517
  C     -896.030     240.123    -489.390
  O     -897.120     240.543    -490.180
  C     -896.260     238.830    -488.597
  N     -897.050     239.016    -487.378
  C     -898.350     239.527    -487.532
  O     -898.880     239.797    -488.626
  N     -899.060     239.721    -486.385
  C     -898.620     239.476    -485.112
  O     -899.290     239.646    -484.114
  C     -897.220     238.968    -485.005
  C     -896.520     238.777    -486.123
  O     -890.990     241.364    -486.743
  O     -893.240     242.325    -485.986
  H     -897.900     240.562    -489.613
  H     -892.620     242.954    -485.580
  H     -900.000     240.058    -486.476
  H     -896.840     238.779    -484.026
  H     -895.510     238.392    -486.085
  H     -896.770     238.087    -489.206
  H     -895.810     240.948    -488.678
  H     -894.160     240.727    -490.256
  H     -893.650     237.941    -489.820
  H     -892.450     238.735    -487.748
  H     -892.040     239.682    -489.209
  P     -893.800     239.579    -492.659
  C     -893.980     237.071    -493.394
  O     -894.020     238.439    -493.773
  O     -892.390     239.818    -492.197
  O     -894.310     240.938    -493.401
  H     -893.510     241.393    -493.708
  H     -894.145     236.457    -494.255
  H     -894.743     236.879    -492.668
  H     -893.022     236.845    -492.973

 6  7  8  9  10  11  12  13  14  15  16  26  31  32  33  34  35 0
 6-311+G(2d,p)
 ****
 36  37 0
 6-311+G(2d,p)
 ****
 1  2  3  4  5  17  18  19  20  21  22  23  24  25 0
 3-21G
 ****
 27  28  29  30  38  39  40  41  42  43  44  45 0
 3-21G
 ****


