%nproc=1
%NoSave
%Mem=1900MB
#P OB98/GEN NMR

erre ene a

0 1
  C     -412.781     -28.079      54.127
  O     -413.707     -28.498      55.112
  H     -411.773     -28.335      54.463
  H     -412.844     -26.998      53.988
  H     -412.979     -28.593      53.183
  P     -415.257     -28.234      54.793
  C     -414.727     -29.985      52.962
  O     -415.461     -28.821      53.315
  C     -415.288     -30.605      51.686
  O     -414.459     -31.693      51.243
  C     -416.689     -31.185      51.832
  O     -417.671     -30.164      51.750
  C     -416.740     -32.113      50.628
  O     -417.019     -31.351      49.437
  C     -415.304     -32.665      50.571
  N     -413.591     -37.457      49.895
  C     -413.791     -36.444      49.025
  N     -414.290     -35.213      49.267
  C     -414.595     -35.069      50.567
  C     -414.445     -36.013      51.571
  C     -413.907     -37.256      51.195
  N     -413.694     -38.282      52.089
  N     -414.867     -35.509      52.785
  C     -415.215     -34.265      52.524
  N     -415.103     -33.962      51.191
  O     -415.737     -26.844      55.027
  O     -415.950     -29.354      55.704
  H     -417.863     -30.885      49.579
  H     -415.429     -30.176      55.689
  H     -413.514     -36.648      47.995
  H     -415.537     -33.542      53.264
  H     -414.944     -32.754      49.539
  H     -417.526     -32.866      50.717
  H     -416.783     -31.779      52.747
  H     -415.263     -29.837      50.901
  H     -414.758     -30.718      53.777
  H     -413.468     -39.190      51.710
  H     -414.044     -38.173      53.029
  H     -413.686     -29.683      52.810
  P     -419.205     -30.476      52.099
  C     -419.035     -29.185      54.316
  O     -419.328     -30.433      53.699
  O     -419.757     -31.706      51.467
  O     -419.996     -29.165      51.640
  H     -420.855     -29.407      51.247
  H     -419.149     -29.276      55.376
  H     -419.707     -28.438      53.947
  H     -418.028     -28.902      54.089

 6  7  8  9  10  11  12  13  14  15  25  28  32  33  34  35 0
 6-311+G(2d,p)
 ****
 36  39  40 0
 6-311+G(2d,p)
 ****
 1  2  3  4  5  16  17  18  19  20  21  22  23  24 0
 3-21G
 ****
 26  27  29  30  31  37  38  41  42  43  44  45  46  47 0
 3-21G
 ****
 48 0
 3-21G
 ****


