%nproc=1
%NoSave
%Mem=1900MB
#P OB98/GEN NMR

erre ene a

0 1
  C       26.751    -202.273    -582.273
  O       25.744    -201.256    -582.272
  P       24.230    -201.741    -582.020
  C       22.079    -201.888    -583.450
  O       23.500    -201.883    -583.445
  C       21.519    -201.426    -584.811
  O       21.933    -200.067    -585.109
  C       21.960    -202.307    -585.982
  O       20.888    -202.335    -586.924
  C       23.112    -201.516    -586.581
  O       23.354    -201.905    -587.935
  C       22.604    -200.079    -586.385
  N       23.668    -199.077    -586.447
  C       23.713    -198.270    -587.583
  O       22.926    -198.457    -588.511
  N       24.675    -197.292    -587.664
  C       25.551    -197.172    -586.717
  N       26.479    -196.191    -586.854
  C       25.579    -198.045    -585.524
  C       24.614    -198.964    -585.463
  O       23.540    -200.455    -581.363
  O       24.131    -202.931    -581.128
  H       24.255    -201.611    -588.178
  H       23.061    -200.712    -580.552
  H       26.338    -197.925    -584.769
  H       24.550    -199.647    -584.623
  H       21.860    -199.826    -587.157
  H       24.027    -201.682    -586.000
  H       22.231    -203.324    -585.690
  H       20.423    -201.428    -584.743
  H       26.424    -195.607    -587.682
  H       21.699    -201.223    -582.670
  H       27.206    -196.009    -586.182
  H       21.722    -202.891    -583.202
  P       20.215    -203.750    -587.265
  C       19.930    -205.129    -589.415
  O       20.414    -203.924    -588.850
  O       18.657    -203.391    -587.183
  O       20.550    -204.922    -586.407
  H       18.123    -204.198    -587.305
  H       20.016    -205.065    -590.502
  H       18.876    -205.276    -589.153
  H       20.525    -205.974    -589.064
  H       27.708    -201.827    -582.450
  H       26.540    -202.983    -583.045
  H       26.758    -202.769    -581.325

 3  4  5  6  7  8  9  10  11  12  13  21  23  27  28  29  30  32 0
 6-311+G(2d,p)
 ****
 34  35 0
 6-311+G(2d,p)
 ****
 1  2  14  15  16  17  18  19  20  22  24  25  26 0
 3-21G
 ****
 31  33  36  37  38  39  40  41  42  43  44  45  46 0
 3-21G
 ****


