%nproc=1
%NoSave
%Mem=1900MB
#P OB98/GEN NMR

erre ene a

0 1
  C      395.408    1115.491     570.914
  O      394.099    1115.135     570.504
  P      393.859    1114.023     569.379
  C      392.311    1115.215     567.612
  O      392.456    1114.301     568.684
  C      391.060    1114.854     566.807
  O      391.160    1113.500     566.301
  C      389.806    1114.946     567.667
  O      389.193    1116.233     567.505
  C      388.960    1113.809     567.136
  O      388.275    1114.199     565.920
  C      390.035    1112.738     566.818
  N      390.526    1111.898     567.937
  C      389.608    1111.322     568.805
  O      388.390    1111.428     568.696
  N      390.156    1110.599     569.849
  C      391.489    1110.390     570.058
  O      391.959    1109.972     571.107
  C      392.370    1110.798     568.964
  C      391.871    1111.538     567.986
  O      393.608    1112.695     570.230
  O      394.974    1113.855     568.402
  H      387.618    1114.860     566.161
  H      394.402    1112.156     570.285
  H      389.498    1110.290     570.559
  H      393.416    1110.521     569.024
  H      392.509    1111.877     567.179
  H      389.700    1112.064     566.024
  H      388.185    1113.537     567.850
  H      390.046    1114.749     568.711
  H      390.991    1115.532     565.938
  H      393.213    1115.157     566.973
  H      392.257    1116.231     567.984
  P      388.505    1116.926     568.773
  C      386.042    1116.954     568.053
  O      387.234    1117.709     568.184
  O      389.426    1117.748     569.628
  O      387.888    1115.698     569.583
  H      388.486    1115.445     570.307
  H      385.222    1117.636     567.804
  H      385.822    1116.430     568.991
  H      386.144    1116.233     567.234
  H      395.352    1116.247     571.670
  H      395.955    1115.866     570.074
  H      395.905    1114.629     571.308

 3  4  5  6  7  8  9  10  11  12  13  23  28  29  30  31  32 0
 6-311+G(2d,p)
 ****
 33  34 0
 6-311+G(2d,p)
 ****
 1  2  14  15  16  17  18  19  20  21  22  24  25  26  27 0
 3-21G
 ****
 35  36  37  38  39  40  41  42  43  44  45 0
 3-21G
 ****


