%nproc=1
%NoSave
%Mem=1900MB
#P OB98/GEN NMR

erre ene a

0 1
  C     -575.115    -733.089     -55.788
  O     -573.752    -733.450     -55.774
  H     -575.226    -732.109     -55.317
  H     -575.695    -733.819     -55.216
  H     -575.497    -733.031     -56.813
  P     -573.319    -734.697     -56.683
  C     -570.936    -734.169     -57.553
  O     -571.721    -734.830     -56.572
  C     -570.630    -732.738     -57.114
  O     -569.859    -732.776     -55.888
  C     -569.832    -731.926     -58.143
  O     -570.309    -730.582     -58.154
  C     -568.414    -731.964     -57.595
  O     -567.630    -730.857     -58.035
  C     -568.677    -731.983     -56.092
  N     -563.952    -731.061     -54.588
  C     -564.859    -730.245     -55.237
  N     -564.446    -728.995     -55.532
  N     -566.069    -730.623     -55.562
  C     -566.360    -731.886     -55.169
  C     -565.549    -732.797     -54.530
  C     -564.204    -732.377     -54.200
  O     -563.347    -733.062     -53.650
  N     -566.199    -733.990     -54.335
  C     -567.400    -733.800     -54.856
  N     -567.546    -732.540     -55.368
  O     -573.547    -734.162     -58.173
  O     -574.073    -735.960     -56.436
  H     -566.734    -730.961     -57.652
  H     -574.249    -734.682     -58.608
  H     -563.031    -730.730     -54.376
  H     -568.188    -734.538     -54.896
  H     -568.859    -730.982     -55.689
  H     -567.914    -732.884     -57.921
  H     -563.550    -728.626     -55.268
  H     -569.888    -732.345     -59.154
  H     -565.106    -728.365     -55.970
  H     -571.577    -732.237     -56.878
  H     -571.486    -734.150     -58.498
  H     -569.999    -734.719     -57.696
  P     -571.441    -730.222     -59.233
  C     -572.941    -728.743     -57.728
  O     -572.067    -728.795     -58.848
  O     -572.616    -731.254     -58.894
  O     -570.989    -730.360     -60.651
  H     -572.666    -731.940     -59.588
  H     -573.281    -727.738     -57.587
  H     -572.419    -729.068     -56.853
  H     -573.781    -729.383     -57.901

 6  7  8  9  10  11  12  13  14  15  26  29  33  34 0
 6-311+G(2d,p)
 ****
 36  38  39  40  41 0
 6-311+G(2d,p)
 ****
 1  2  3  4  5  16  17  18  19  20  21  22  23  24  25 0
 3-21G
 ****
 27  28  30  31  32  35  37  42  43  44  45  46  47 0
 3-21G
 ****
 48  49 0
 3-21G
 ****


