%nproc=1
%NoSave
%Mem=1900MB
#P OB98/GEN NMR

erre ene a

0 1
  C      578.401     -70.427     435.651
  O      579.392     -70.428     434.637
  P      580.455     -71.618     434.530
  C      578.917     -73.193     433.098
  O      580.124     -72.472     433.226
  C      578.702     -73.553     431.622
  O      578.388     -72.366     430.864
  C      579.954     -74.185     431.012
  O      579.875     -75.602     431.071
  C      579.942     -73.635     429.599
  O      579.046     -74.394     428.764
  C      579.390     -72.209     429.822
  N      580.332     -71.154     430.250
  C      581.130     -70.517     429.304
  O      581.078     -70.749     428.100
  N      582.017     -69.594     429.799
  C      582.146     -69.235     431.113
  O      583.090     -68.598     431.566
  C      581.103     -69.739     432.009
  C      580.271     -70.670     431.551
  O      580.031     -72.589     435.724
  O      581.889     -71.207     434.620
  H      578.202     -74.475     429.248
  H      580.597     -72.442     436.507
  H      582.693     -69.230     429.136
  H      581.075     -69.366     433.028
  H      579.512     -71.093     432.213
  H      578.879     -71.836     428.923
  H      580.930     -73.716     429.139
  H      580.852     -73.820     431.525
  H      577.851     -74.242     431.545
  H      578.081     -72.593     433.474
  H      578.958     -74.105     433.708
  P      581.213     -76.460     431.254
  C      580.665     -76.726     433.746
  O      580.940     -77.393     432.529
  O      582.483     -75.671     431.290
  O      581.173     -77.469     430.011
  H      581.735     -77.126     429.285
  H      580.322     -77.458     434.479
  H      579.881     -75.969     433.601
  H      581.573     -76.243     434.114
  H      577.792     -69.553     435.554
  H      578.873     -70.428     436.611
  H      577.790     -71.300     435.553

 3  4  5  6  7  8  9  10  11  12  13  23  28  29  30  31  32 0
 6-311+G(2d,p)
 ****
 33  34 0
 6-311+G(2d,p)
 ****
 1  2  14  15  16  17  18  19  20  21  22  24  25  26  27 0
 3-21G
 ****
 35  36  37  38  39  40  41  42  43  44  45 0
 3-21G
 ****


