%nproc=1
%NoSave
%Mem=1900MB
#P OB98/GEN NMR

erre ene a

0 1
  C      101.790     -37.339     -25.519
  O      102.989     -37.762     -26.138
  H      102.017     -36.639     -24.712
  H      101.172     -36.832     -26.264
  H      101.237     -38.197     -25.125
  P      103.967     -38.684     -25.262
  C      105.464     -36.631     -24.716
  O      104.672     -37.696     -24.210
  C      106.095     -35.843     -23.567
  O      105.076     -35.004     -22.962
  C      106.680     -36.731     -22.465
  O      107.891     -36.140     -21.989
  C      105.621     -36.689     -21.377
  O      106.160     -36.956     -20.088
  C      105.068     -35.277     -21.548
  N      102.280     -33.435     -17.688
  C      103.588     -33.312     -17.996
  N      104.253     -33.830     -19.050
  C      103.411     -34.501     -19.856
  C      102.056     -34.714     -19.673
  C      101.485     -34.151     -18.519
  N      100.161     -34.304     -18.177
  N      101.543     -35.484     -20.700
  C      102.573     -35.728     -21.487
  N      103.723     -35.159     -21.016
  O      105.140     -39.023     -26.303
  O      103.356     -39.916     -24.686
  H      106.897     -36.330     -19.928
  H      104.848     -39.740     -26.897
  H      104.182     -32.723     -17.301
  H      102.542     -36.314     -22.395
  H      105.684     -34.522     -21.043
  H      104.848     -37.439     -21.586
  H      106.881     -37.748     -22.804
  H      106.855     -35.169     -23.980
  H      104.829     -35.966     -25.310
  H       99.849     -33.914     -17.303
  H       99.568     -34.884     -18.752
  H      106.252     -37.040     -25.358
  P      109.262     -36.712     -22.597
  C      110.193     -37.713     -20.395
  O      109.729     -37.967     -21.712
  O      110.329     -35.575     -22.237
  O      109.205     -36.960     -24.070
  H      110.843     -35.337     -23.031
  H      110.467     -38.636     -19.929
  H      109.416     -37.244     -19.827
  H      111.045     -37.067     -20.435

 6  7  8  9  10  11  12  13  14  15  25  28  32  33  34  35 0
 6-311+G(2d,p)
 ****
 36  39  40 0
 6-311+G(2d,p)
 ****
 1  2  3  4  5  16  17  18  19  20  21  22  23  24 0
 3-21G
 ****
 26  27  29  30  31  37  38  41  42  43  44  45  46  47 0
 3-21G
 ****
 48 0
 3-21G
 ****


