%nproc=1
%NoSave
%Mem=1900MB
#P OB98/GEN NMR

erre ene a

0 1
  C      315.214     -17.675      46.429
  O      315.980     -17.452      45.252
  P      316.319     -18.711      44.320
  C      318.519     -18.900      45.684
  O      317.419     -19.587      45.096
  C      319.476     -19.877      46.368
  O      318.887     -20.322      47.619
  C      319.802     -21.131      45.547
  O      321.146     -21.508      45.858
  C      318.851     -22.170      46.120
  O      319.283     -23.504      45.857
  C      318.863     -21.769      47.595
  N      317.172     -25.223      50.965
  C      318.409     -24.969      50.482
  N      318.778     -24.031      49.584
  C      317.719     -23.312      49.180
  C      316.396     -23.480      49.563
  C      316.133     -24.488      50.506
  N      314.876     -24.744      51.008
  N      315.585     -22.568      48.912
  C      316.405     -21.868      48.153
  N      317.705     -22.266      48.306
  O      317.148     -18.046      43.121
  O      315.140     -19.465      43.813
  H      320.171     -23.617      46.245
  H      316.631     -18.082      42.295
  H      319.204     -25.604      50.869
  H      316.108     -21.069      47.487
  H      319.757     -22.129      48.112
  H      317.854     -22.047      45.678
  H      319.683     -21.004      44.467
  H      320.398     -19.336      46.620
  H      318.135     -18.201      46.434
  H      314.787     -25.387      51.779
  H      314.127     -24.082      50.817
  H      319.049     -18.330      44.916
  P      322.106     -21.875      44.624
  C      321.472     -24.387      44.447
  O      321.421     -23.100      43.857
  O      323.386     -22.530      45.330
  O      322.484     -20.700      43.782
  H      324.179     -22.392      44.781
  H      320.559     -24.927      44.195
  H      321.556     -24.326      45.541
  H      322.334     -24.927      44.054
  H      315.071     -16.747      46.942
  H      315.732     -18.360      47.067
  H      314.263     -18.086      46.163

 3  4  5  6  7  8  9  10  11  12  22  25  29  30  31  32 0
 6-311+G(2d,p)
 ****
 33  36  37 0
 6-311+G(2d,p)
 ****
 1  2  13  14  15  16  17  18  19  20  21  23  24  26 0
 3-21G
 ****
 27  28  34  35  38  39  40  41  42  43  44  45  46  47  48 0
 3-21G
 ****


