%nproc=1
%NoSave
%Mem=1900MB
#P OB98/GEN NMR

erre ene a

0 1
  C      128.104     428.575     328.500
  O      126.714     428.837     328.622
  P      125.705     427.614     328.332
  C      125.655     428.254     325.810
  O      124.905     427.981     326.989
  C      124.737     428.656     324.650
  O      125.542     428.843     323.453
  C      123.654     427.609     324.315
  O      122.496     428.343     323.894
  C      124.290     426.858     323.147
  O      123.370     426.094     322.385
  C      124.959     428.011     322.420
  N      125.879     426.560     317.595
  C      124.751     427.011     318.202
  N      124.584     427.395     319.500
  C      125.741     427.279     320.175
  C      126.970     426.813     319.695
  C      127.012     426.448     318.336
  N      128.158     425.977     317.723
  N      127.913     426.821     320.697
  C      127.280     427.265     321.760
  N      125.986     427.576     321.492
  O      124.593     427.787     329.477
  O      126.331     426.253     328.359
  H      123.836     425.649     321.659
  H      124.305     426.929     329.826
  H      123.875     427.085     317.563
  H      127.714     427.373     322.747
  H      124.236     428.637     321.868
  H      125.040     426.156     323.539
  H      123.382     426.964     325.156
  H      124.272     429.615     324.886
  H      126.208     427.357     325.519
  H      128.035     425.553     316.814
  H      128.925     425.705     318.329
  H      126.393     429.041     326.018
  P      121.205     428.361     324.836
  C      120.708     425.850     324.537
  O      120.271     427.174     324.265
  O      120.442     429.661     324.293
  O      121.469     428.373     326.322
  H      120.345     429.639     323.323
  H      119.948     425.165     324.177
  H      120.852     425.713     325.608
  H      121.643     425.650     323.998
  H      128.655     429.466     328.718
  H      128.321     428.257     327.502
  H      128.384     427.805     329.188

 3  4  5  6  7  8  9  10  11  12  22  25  29  30  31  32 0
 6-311+G(2d,p)
 ****
 33  36  37 0
 6-311+G(2d,p)
 ****
 1  2  13  14  15  16  17  18  19  20  21  23  24  26 0
 3-21G
 ****
 27  28  34  35  38  39  40  41  42  43  44  45  46  47  48 0
 3-21G
 ****


