%nproc=1
%NoSave
%Mem=1900MB
#P OB98/GEN NMR

erre ene a

0 1
  C     -173.623      17.214    -229.063
  O     -172.648      17.109    -230.076
  H     -174.379      17.936    -229.383
  H     -173.174      17.577    -228.135
  H     -174.109      16.251    -228.893
  P     -171.384      16.143    -229.854
  C     -171.748      14.733    -231.968
  O     -170.924      15.702    -231.333
  C     -171.666      14.855    -233.490
  O     -172.616      15.852    -233.951
  C     -170.278      15.268    -234.003
  O     -169.894      14.426    -235.093
  C     -170.491      16.688    -234.507
  O     -169.542      17.077    -235.495
  C     -171.947      16.610    -234.974
  N     -172.535      17.932    -235.162
  C     -172.623      18.385    -236.481
  O     -172.227      17.677    -237.408
  N     -173.108      19.645    -236.716
  C     -173.431      20.407    -235.717
  N     -173.878      21.655    -236.017
  C     -173.325      19.979    -234.306
  C     -172.878      18.740    -234.103
  O     -171.621      15.017    -228.904
  O     -170.200      17.115    -229.393
  H     -169.594      16.444    -236.243
  H     -169.523      16.588    -228.909
  H     -173.601      20.653    -233.510
  H     -172.764      18.337    -233.102
  H     -172.030      16.056    -235.918
  H     -170.407      17.385    -233.663
  H     -169.506      15.228    -233.235
  H     -171.984      13.901    -233.931
  H     -173.927      21.909    -236.998
  H     -172.781      14.874    -231.628
  H     -174.133      22.343    -235.326
  H     -171.403      13.738    -231.669
  P     -168.413      13.813    -235.028
  C     -169.236      11.534    -235.956
  O     -168.323      12.614    -236.091
  O     -168.380      13.075    -233.608
  O     -167.338      14.844    -235.135
  H     -167.795      13.560    -232.996
  H     -169.057      10.817    -236.730
  H     -170.238      11.902    -236.035
  H     -169.101      11.070    -235.001

 6  7  8  9  10  11  12  13  14  15  16  26  30  31  32  33  35 0
 6-311+G(2d,p)
 ****
 37  38 0
 6-311+G(2d,p)
 ****
 1  2  3  4  5  17  18  19  20  21  22  23  24  25 0
 3-21G
 ****
 27  28  29  34  36  39  40  41  42  43  44  45  46 0
 3-21G
 ****


