%nproc=1
%NoSave
%Mem=1900MB
#P OB98/GEN NMR

erre ene a

0 1
  C     -216.503    -135.800     -96.561
  O     -215.215    -135.938     -97.132
  P     -214.306    -137.152     -96.588
  C     -212.027    -136.075     -97.288
  O     -212.874    -136.519     -96.240
  C     -210.565    -136.218     -96.866
  O     -210.293    -135.391     -95.718
  C     -210.163    -137.634     -96.476
  O     -209.880    -138.406     -97.626
  C     -208.946    -137.372     -95.595
  O     -207.770    -137.146     -96.396
  C     -209.362    -136.097     -94.849
  N     -208.467    -137.289     -90.017
  C     -207.616    -137.299     -91.109
  N     -206.330    -137.632     -90.863
  N     -207.991    -137.006     -92.326
  C     -209.308    -136.702     -92.423
  C     -210.248    -136.673     -91.421
  C     -209.812    -136.949     -90.073
  O     -210.499    -136.860     -89.061
  N     -211.490    -136.344     -91.907
  C     -211.286    -136.146     -93.195
  N     -209.976    -136.329     -93.557
  O     -214.040    -138.019     -97.906
  O     -214.914    -137.956     -95.477
  H     -208.004    -136.566     -97.142
  H     -214.652    -138.782     -97.946
  H     -208.115    -137.510     -89.103
  H     -212.047    -135.848     -93.898
  H     -208.509    -135.423     -94.680
  H     -208.721    -138.217     -94.941
  H     -205.975    -137.893     -89.960
  H     -210.956    -138.105     -95.876
  H     -205.688    -137.649     -91.655
  H     -209.941    -135.859     -97.694
  H     -212.245    -135.025     -97.509
  H     -212.231    -136.668     -98.189
  P     -210.366    -139.935     -97.635
  C     -208.084    -140.575     -96.572
  O     -209.495    -140.716     -96.542
  O     -209.820    -140.488     -99.036
  O     -211.848    -140.109     -97.522
  H     -210.460    -141.126     -99.410
  H     -207.703    -140.685     -95.550
  H     -207.786    -139.596     -96.960
  H     -207.658    -141.360     -97.200
  H     -217.002    -134.963     -97.004
  H     -216.411    -135.643     -95.507
  H     -217.070    -136.689     -96.741

 3  4  5  6  7  8  9  10  11  12  23  26  30  31 0
 6-311+G(2d,p)
 ****
 33  35  36  37  38 0
 6-311+G(2d,p)
 ****
 1  2  13  14  15  16  17  18  19  20  21  22  24  25 0
 3-21G
 ****
 27  28  29  32  34  39  40  41  42  43  44  45  46  47  48  49 0
 3-21G
 ****


