%nproc=1
%NoSave
%Mem=1900MB
#P OB98/GEN NMR

erre ene a

0 1
  C     -139.645     -37.170    -129.428
  O     -140.725     -36.389    -128.933
  P     -140.527     -34.792    -128.885
  C     -139.044     -33.207    -127.457
  O     -139.591     -34.513    -127.613
  C     -138.405     -33.053    -126.080
  O     -139.426     -32.981    -125.064
  C     -137.499     -34.203    -125.671
  O     -136.199     -34.087    -126.228
  C     -137.449     -34.010    -124.165
  O     -136.521     -32.957    -123.836
  C     -138.883     -33.568    -123.851
  N     -143.716     -35.070    -123.104
  C     -143.191     -33.880    -123.467
  N     -141.891     -33.556    -123.635
  C     -141.098     -34.605    -123.348
  C     -141.492     -35.867    -122.930
  C     -142.871     -36.091    -122.820
  N     -143.410     -37.315    -122.479
  N     -140.394     -36.675    -122.732
  C     -139.358     -35.922    -123.035
  N     -139.731     -34.664    -123.421
  O     -141.963     -34.268    -128.410
  O     -140.097     -34.170    -130.169
  H     -135.674     -33.183    -124.265
  H     -142.088     -33.338    -128.686
  H     -143.908     -33.086    -123.655
  H     -138.326     -36.243    -122.997
  H     -138.921     -32.797    -123.073
  H     -137.117     -34.906    -123.631
  H     -137.958     -35.173    -125.901
  H     -137.852     -32.103    -126.068
  H     -139.846     -32.469    -127.564
  H     -144.404     -37.446    -122.602
  H     -142.794     -38.118    -122.466
  H     -138.300     -33.035    -128.245
  P     -135.527     -35.436    -126.785
  C     -134.484     -37.507    -125.607
  O     -134.902     -36.159    -125.499
  O     -134.249     -34.902    -127.586
  O     -136.429     -36.263    -127.638
  H     -133.993     -35.537    -128.282
  H     -133.817     -37.735    -124.771
  H     -133.939     -37.676    -126.543
  H     -135.352     -38.171    -125.561
  H     -139.913     -38.206    -129.403
  H     -138.781     -37.011    -128.818
  H     -139.429     -36.882    -130.435

 3  4  5  6  7  8  9  10  11  12  22  25  29  30  31  32 0
 6-311+G(2d,p)
 ****
 33  36  37 0
 6-311+G(2d,p)
 ****
 1  2  13  14  15  16  17  18  19  20  21  23  24  26 0
 3-21G
 ****
 27  28  34  35  38  39  40  41  42  43  44  45  46  47  48 0
 3-21G
 ****


