%nproc=1
%NoSave
%Mem=1900MB
#P OB98/GEN NMR

erre ene a

0 1
  C     -142.421      -5.954    -134.161
  O     -142.286      -7.322    -133.833
  H     -141.931      -5.336    -133.405
  H     -141.943      -5.774    -135.127
  H     -143.478      -5.685    -134.233
  P     -142.891      -7.792    -132.423
  C     -141.016      -9.392    -131.619
  O     -142.332      -9.274    -132.142
  C     -140.436     -10.760    -131.975
  O     -139.929     -10.701    -133.331
  C     -139.293     -11.230    -131.058
  O     -139.626     -12.486    -130.457
  C     -138.117     -11.442    -131.997
  O     -137.352     -12.607    -131.686
  C     -138.772     -11.548    -133.368
  N     -134.990     -13.117    -136.401
  C     -135.948     -13.804    -135.740
  N     -136.990     -13.320    -135.035
  C     -137.007     -11.976    -135.072
  C     -136.112     -11.141    -135.722
  C     -135.049     -11.765    -136.397
  N     -134.042     -11.065    -137.023
  N     -136.450      -9.814    -135.525
  C     -137.503      -9.849    -134.733
  N     -137.865     -11.132    -134.419
  O     -144.441      -8.031    -132.750
  O     -142.706      -6.824    -131.302
  H     -136.872     -12.414    -130.858
  H     -144.990      -7.594    -132.070
  H     -135.861     -14.887    -135.777
  H     -138.012      -8.984    -134.324
  H     -139.106     -12.570    -133.588
  H     -137.454     -10.569    -131.940
  H     -139.048     -10.500    -130.278
  H     -141.254     -11.492    -131.967
  H     -141.044      -9.292    -130.528
  H     -133.259     -11.589    -137.380
  H     -134.022     -10.058    -136.930
  H     -140.396      -8.588    -132.029
  P     -139.669     -12.528    -128.847
  C     -138.419     -14.794    -128.558
  O     -139.635     -14.072    -128.408
  O     -141.171     -12.084    -128.518
  O     -138.664     -11.640    -128.193
  H     -141.212     -11.673    -127.633
  H     -138.558     -15.801    -128.224
  H     -137.653     -14.327    -127.975
  H     -138.131     -14.797    -129.588

 6  7  8  9  10  11  12  13  14  15  25  28  32  33  34  35 0
 6-311+G(2d,p)
 ****
 36  39  40 0
 6-311+G(2d,p)
 ****
 1  2  3  4  5  16  17  18  19  20  21  22  23  24 0
 3-21G
 ****
 26  27  29  30  31  37  38  41  42  43  44  45  46  47  48 0
 3-21G
 ****


