%nproc=1
%NoSave
%Mem=1900MB
#P OB98/GEN NMR

erre ene a

0 1
  C       -9.536      -5.178     -46.927
  O       -8.865      -5.073     -48.171
  P       -7.475      -4.268     -48.202
  C       -6.843      -1.771     -48.532
  O       -7.836      -2.706     -48.135
  C       -7.081      -0.410     -47.875
  O       -7.140      -0.589     -46.432
  C       -5.993       0.636     -48.164
  O       -6.650       1.907     -48.232
  C       -5.119       0.535     -46.926
  O       -4.257       1.643     -46.735
  C       -6.186       0.331     -45.855
  N       -2.852       1.142     -42.067
  C       -3.205       1.896     -43.132
  N       -4.108       1.618     -44.096
  C       -4.682       0.423     -43.875
  C       -4.413      -0.463     -42.846
  C       -3.447      -0.062     -41.908
  N       -3.083      -0.838     -40.827
  N       -5.180      -1.602     -42.965
  C       -5.901      -1.409     -44.050
  N       -5.651      -0.192     -44.621
  O       -6.978      -4.466     -49.708
  O       -6.456      -4.732     -47.209
  H       -3.766       1.544     -45.896
  H       -6.011      -4.592     -49.747
  H       -2.693       2.850     -43.224
  H       -6.603      -2.117     -44.468
  H       -6.718       1.262     -45.623
  H       -4.483      -0.354     -47.011
  H       -5.458       0.459     -49.102
  H       -8.060      -0.037     -48.198
  H       -6.882      -1.639     -49.618
  H       -2.249      -0.555     -40.333
  H       -3.376      -1.807     -40.835
  H       -5.852      -2.163     -48.277
  P       -5.964       3.091     -49.071
  C       -4.167       4.819     -48.451
  O       -4.743       3.565     -48.141
  O       -7.019       4.273     -48.845
  O       -5.662       2.789     -50.498
  H       -7.231       4.390     -47.902
  H       -3.423       5.059     -47.687
  H       -4.934       5.599     -48.456
  H       -3.672       4.772     -49.424
  H      -10.440      -5.736     -47.055
  H       -9.770      -4.199     -46.564
  H       -8.905      -5.679     -46.223

 3  4  5  6  7  8  9  10  11  12  22  25  29  30  31  32 0
 6-311+G(2d,p)
 ****
 33  36  37 0
 6-311+G(2d,p)
 ****
 1  2  13  14  15  16  17  18  19  20  21  23  24  26 0
 3-21G
 ****
 27  28  34  35  38  39  40  41  42  43  44  45  46  47  48 0
 3-21G
 ****


