%nproc=1
%NoSave
%Mem=1900MB
#P OB98/GEN NMR

erre ene a

0 1
  C      491.915    -419.574    -302.122
  O      493.155    -418.895    -302.114
  H      492.097    -420.639    -301.949
  H      491.408    -419.457    -303.082
  H      491.274    -419.196    -301.316
  P      493.178    -417.363    -302.597
  C      492.596    -416.229    -304.845
  O      493.059    -417.412    -304.201
  C      493.070    -416.177    -306.299
  O      492.532    -417.294    -307.036
  C      492.604    -414.940    -307.053
  O      493.208    -413.738    -306.621
  C      492.741    -415.371    -308.503
  O      494.048    -415.168    -309.035
  C      492.442    -416.889    -308.417
  N      491.145    -417.224    -308.997
  C      491.166    -417.639    -310.326
  O      492.196    -417.705    -311.003
  N      489.951    -417.937    -310.880
  C      488.739    -417.815    -310.255
  O      487.678    -418.061    -310.819
  C      488.781    -417.350    -308.859
  C      489.961    -417.078    -308.305
  O      494.335    -416.542    -302.103
  O      491.750    -416.801    -302.146
  H      493.997    -415.343    -309.994
  H      491.741    -415.811    -302.143
  H      489.949    -418.248    -311.837
  H      487.838    -417.240    -308.338
  H      490.018    -416.734    -307.273
  H      493.206    -417.458    -308.960
  H      492.043    -414.826    -309.151
  H      491.529    -414.817    -306.868
  H      494.163    -416.257    -306.312
  H      493.005    -415.370    -304.299
  H      491.503    -416.188    -304.797
  P      492.886    -412.315    -307.263
  C      492.638    -411.423    -309.692
  O      493.248    -412.376    -308.831
  O      493.300    -411.112    -306.484
  O      491.270    -412.337    -307.295
  H      490.961    -411.421    -307.142
  H      492.971    -411.585    -310.696
  H      492.910    -410.436    -309.381
  H      491.574    -411.531    -309.647

 6  7  8  9  10  11  12  13  14  15  16  26  31  32  33  34  35 0
 6-311+G(2d,p)
 ****
 36  37 0
 6-311+G(2d,p)
 ****
 1  2  3  4  5  17  18  19  20  21  22  23  24  25 0
 3-21G
 ****
 27  28  29  30  38  39  40  41  42  43  44  45 0
 3-21G
 ****


