%nproc=1
%NoSave
%Mem=1900MB
#P OB98/GEN NMR

erre ene a

0 1
  C      746.600    -303.052     721.322
  O      747.659    -302.543     722.142
  P      747.274    -301.835     723.538
  C      748.190    -303.706     725.066
  O      747.033    -302.975     724.657
  C      747.884    -304.564     726.304
  O      747.843    -303.739     727.514
  C      746.509    -305.253     726.191
  O      746.539    -306.536     726.864
  C      745.614    -304.334     727.015
  O      744.421    -305.015     727.446
  C      746.551    -303.909     728.121
  N      745.000    -301.867     732.551
  C      745.416    -303.085     732.242
  N      745.844    -303.570     731.047
  C      745.812    -302.603     730.122
  C      745.419    -301.282     730.294
  C      744.992    -300.920     731.575
  N      744.530    -299.648     731.887
  N      745.513    -300.576     729.104
  C      745.928    -301.469     728.219
  N      746.146    -302.702     728.795
  O      746.208    -300.805     723.473
  O      748.672    -301.202     724.002
  H      744.697    -305.872     727.804
  H      748.503    -300.307     724.352
  H      745.408    -303.815     733.053
  H      746.065    -301.276     727.163
  H      746.663    -304.706     728.889
  H      745.307    -303.486     726.389
  H      746.146    -305.405     725.170
  H      748.679    -305.294     726.446
  H      748.992    -303.004     725.309
  H      744.123    -299.512     732.789
  H      744.370    -298.993     731.159
  H      748.562    -304.310     724.226
  P      747.165    -307.747     726.013
  C      749.270    -307.421     727.522
  O      748.743    -307.677     726.224
  O      746.688    -307.784     724.580
  O      746.702    -309.020     726.866
  H      746.898    -308.957     727.822
  H      750.365    -307.545     727.479
  H      748.881    -308.130     728.240
  H      749.037    -306.402     727.829
  H      747.013    -303.489     720.437
  H      745.942    -302.252     721.052
  H      746.054    -303.795     721.865

 3  4  5  6  7  8  9  10  11  12  22  25  29  30  31  32 0
 6-311+G(2d,p)
 ****
 33  36  37 0
 6-311+G(2d,p)
 ****
 1  2  13  14  15  16  17  18  19  20  21  23  24  26 0
 3-21G
 ****
 27  28  34  35  38  39  40  41  42  43  44  45  46  47  48 0
 3-21G
 ****


