%nproc=1
%NoSave
%Mem=1900MB
#P OB98/GEN NMR

erre ene a

0 1
  C      719.286    -895.320    -270.442
  O      718.208    -894.390    -270.428
  P      716.743    -894.940    -270.039
  C      717.105    -894.770    -267.466
  O      716.857    -895.610    -268.580
  C      716.510    -895.400    -266.203
  O      715.073    -895.470    -266.357
  C      717.017    -896.810    -265.882
  O      717.031    -896.940    -264.451
  C      715.927    -897.700    -266.465
  O      715.926    -898.990    -265.888
  C      714.700    -896.870    -266.169
  N      710.156    -899.070    -266.480
  C      711.060    -899.020    -265.429
  N      710.648    -899.570    -264.284
  N      712.216    -898.450    -265.494
  C      712.497    -897.920    -266.713
  C      711.711    -897.940    -267.846
  C      710.407    -898.530    -267.746
  O      709.553    -898.520    -268.637
  N      712.369    -897.370    -268.902
  C      713.493    -896.930    -268.399
  N      713.591    -897.200    -267.065
  O      716.580    -896.200    -271.012
  O      715.618    -893.940    -270.166
  H      715.257    -899.540    -266.361
  H      716.097    -895.940    -271.826
  H      709.249    -899.500    -266.380
  H      714.270    -896.410    -268.942
  H      714.336    -896.990    -265.143
  H      716.082    -897.800    -267.549
  H      709.720    -900.000    -264.136
  H      718.013    -897.020    -266.289
  H      711.246    -899.530    -263.479
  H      716.713    -894.720    -265.365
  H      716.614    -893.810    -267.639
  H      718.193    -894.590    -267.358
  P      718.362    -897.500    -263.764
  C      718.713    -895.390    -262.310
  O      719.233    -896.240    -263.316
  O      719.206    -898.090    -264.993
  O      718.124    -898.550    -262.725
  H      719.721    -898.860    -264.704
  H      719.537    -894.860    -261.801
  H      718.161    -895.930    -261.546
  H      718.029    -894.670    -262.761
  H      720.189    -894.815    -270.716
  H      719.081    -896.094    -271.152
  H      719.399    -895.750    -269.469

 3  4  5  6  7  8  9  10  11  12  23  26  30  31 0
 6-311+G(2d,p)
 ****
 33  35  36  37  38 0
 6-311+G(2d,p)
 ****
 1  2  13  14  15  16  17  18  19  20  21  22  24  25 0
 3-21G
 ****
 27  28  29  32  34  39  40  41  42  43  44  45  46  47  48  49 0
 3-21G
 ****


