%nproc=1
%NoSave
%Mem=1900MB
#P OB98/GEN NMR

erre ene a

0 1
  C      179.642     -68.884     128.327
  O      178.968     -69.705     127.394
  H      180.257     -68.163     127.781
  H      180.295     -69.484     128.966
  H      178.924     -68.333     128.942
  P      178.002     -70.853     127.955
  C      179.596     -72.838     127.516
  O      178.965     -72.016     128.491
  C      179.694     -74.272     128.021
  O      180.468     -74.325     129.236
  C      178.340     -74.910     128.340
  O      177.724     -75.378     127.154
  C      178.778     -76.030     129.270
  O      179.348     -77.104     128.501
  C      179.872     -75.331     130.100
  N      178.035     -76.035     134.772
  C      178.357     -76.960     133.797
  N      178.110     -78.253     134.095
  N      178.850     -76.644     132.629
  C      178.974     -75.307     132.445
  C      178.676     -74.295     133.330
  C      178.182     -74.662     134.640
  O      177.900     -73.875     135.542
  N      178.873     -73.060     132.767
  C      179.328     -73.326     131.556
  N      179.392     -74.677     131.307
  O      176.934     -71.336     127.020
  O      177.392     -70.229     129.294
  H      178.641     -77.434     127.914
  H      176.546     -69.778     129.121
  H      177.640     -76.342     135.646
  H      179.620     -72.583     130.826
  H      180.668     -76.021     130.401
  H      177.960     -76.445     129.856
  H      177.482     -78.521     134.843
  H      177.693     -74.228     128.898
  H      178.290     -78.942     133.375
  H      180.237     -74.857     127.269
  H      180.595     -72.423     127.335
  H      179.032     -72.815     126.577
  P      176.134     -75.613     127.082
  C      175.475     -78.075     127.514
  O      175.853     -76.827     128.088
  O      175.589     -75.799     125.708
  O      175.512     -74.368     127.862
  H      175.343     -73.582     127.283
  H      175.319     -78.793     128.292
  H      176.252     -78.418     126.863
  H      174.570     -77.952     126.956

 6  7  8  9  10  11  12  13  14  15  26  29  33  34 0
 6-311+G(2d,p)
 ****
 36  38  39  40  41 0
 6-311+G(2d,p)
 ****
 1  2  3  4  5  16  17  18  19  20  21  22  23  24  25 0
 3-21G
 ****
 27  28  30  31  32  35  37  42  43  44  45  46  47 0
 3-21G
 ****
 48  49 0
 3-21G
 ****


