%nproc=1
%NoSave
%Mem=1900MB
#P OB98/GEN NMR

erre ene a

0 1
  C      580.225    -896.490    -411.549
  O      581.309    -896.200    -412.398
  P      581.893    -894.710    -412.500
  C      583.954    -895.230    -411.029
  O      583.484    -894.860    -412.330
  C      585.341    -895.850    -411.110
  O      585.283    -897.170    -411.667
  C      586.309    -895.080    -411.988
  O      586.787    -893.920    -411.321
  C      587.374    -896.140    -412.265
  O      588.308    -896.220    -411.182
  C      586.525    -897.430    -412.347
  N      586.307    -897.860    -413.720
  C      587.108    -898.910    -414.172
  O      587.974    -899.400    -413.433
  N      586.971    -899.350    -415.468
  C      586.104    -898.760    -416.256
  N      586.013    -899.240    -417.528
  C      585.257    -897.630    -415.835
  C      585.419    -897.230    -414.562
  O      581.233    -893.720    -411.617
  O      581.741    -894.370    -414.070
  H      588.789    -895.370    -411.162
  H      580.788    -894.190    -414.306
  H      584.574    -897.160    -416.522
  H      584.839    -896.400    -414.173
  H      587.014    -898.250    -411.800
  H      587.941    -895.920    -413.167
  H      585.815    -894.810    -412.930
  H      585.741    -895.920    -410.091
  H      586.626    -900.000    -417.791
  H      583.253    -895.970    -410.616
  H      585.396    -898.830    -418.230
  H      583.944    -894.350    -410.370
  P      587.211    -892.630    -412.164
  C      585.316    -891.059    -411.422
  O      586.695    -891.333    -411.346
  O      586.848    -892.660    -413.613
  O      588.796    -892.560    -411.973
  H      589.211    -892.360    -412.852
  H      585.050    -890.395    -410.587
  H      584.733    -891.970    -411.340
  H      585.085    -890.561    -412.360
  H      579.984    -897.530    -411.620
  H      579.377    -895.907    -411.841
  H      580.489    -896.254    -410.539

 3  4  5  6  7  8  9  10  11  12  13  23  27  28  29  30  32 0
 6-311+G(2d,p)
 ****
 34  35 0
 6-311+G(2d,p)
 ****
 1  2  14  15  16  17  18  19  20  21  22  24  25  26 0
 3-21G
 ****
 31  33  36  37  38  39  40  41  42  43  44  45  46 0
 3-21G
 ****


