%nproc=1
%NoSave
%Mem=1900MB
#P OB98/GEN NMR

erre ene a

0 1
  C      117.764    -217.683    -249.118
  O      117.038    -218.083    -250.289
  P      117.408    -219.499    -250.941
  C      118.638    -220.334    -253.068
  O      117.997    -219.248    -252.415
  C      118.988    -219.984    -254.527
  O      117.800    -220.031    -255.366
  C      119.590    -218.582    -254.694
  O      120.486    -218.604    -255.814
  C      118.381    -217.742    -255.049
  O      118.758    -216.510    -255.670
  C      117.627    -218.725    -255.949
  N      114.205    -216.176    -258.656
  C      115.576    -216.259    -258.803
  N      116.110    -215.592    -259.849
  N      116.356    -216.944    -258.000
  C      115.671    -217.584    -257.019
  C      114.325    -217.574    -256.758
  C      113.478    -216.798    -257.643
  O      112.261    -216.674    -257.544
  N      114.016    -218.333    -255.657
  C      115.186    -218.794    -255.243
  N      116.215    -218.402    -256.064
  O      115.964    -220.152    -251.224
  O      118.227    -220.381    -250.060
  H      117.923    -216.028    -255.878
  H      115.801    -220.879    -250.599
  H      113.658    -215.630    -259.293
  H      115.340    -219.410    -254.373
  H      118.027    -218.746    -256.967
  H      117.802    -217.514    -254.149
  H      115.562    -215.102    -260.538
  H      120.122    -218.210    -253.808
  H      117.106    -215.675    -260.005
  H      119.685    -220.734    -254.907
  H      117.998    -221.218    -253.052
  H      119.535    -220.611    -252.504
  P      122.043    -218.431    -255.502
  C      123.661    -216.391    -255.456
  O      122.319    -216.853    -255.507
  O      122.758    -218.938    -256.844
  O      122.530    -219.164    -254.294
  H      123.660    -219.248    -256.651
  H      123.970    -216.060    -256.452
  H      124.351    -217.177    -255.108
  H      123.722    -215.551    -254.773
  H      117.416    -216.725    -248.793
  H      118.807    -217.624    -249.348
  H      117.610    -218.401    -248.340

 3  4  5  6  7  8  9  10  11  12  23  26  30  31 0
 6-311+G(2d,p)
 ****
 33  35  36  37  38 0
 6-311+G(2d,p)
 ****
 1  2  13  14  15  16  17  18  19  20  21  22  24  25 0
 3-21G
 ****
 27  28  29  32  34  39  40  41  42  43  44  45  46  47  48  49 0
 3-21G
 ****


