%nproc=1
%NoSave
%Mem=1900MB
#P OB98/GEN NMR

erre ene a

0 1
  C      -70.903    -374.152     134.347
  O      -69.628    -374.515     133.851
  P      -68.890    -375.819     134.416
  C      -68.965    -377.215     132.222
  O      -69.410    -377.064     133.552
  C      -68.025    -378.420     132.086
  O      -67.626    -378.518     130.698
  C      -66.730    -378.316     132.885
  O      -66.166    -379.625     133.008
  C      -65.868    -377.475     131.969
  O      -64.480    -377.609     132.266
  C      -66.296    -377.965     130.564
  N      -66.294    -376.863     129.584
  C      -65.682    -377.110     128.360
  O      -65.223    -378.209     128.050
  N      -65.535    -376.027     127.537
  C      -65.895    -374.747     127.842
  O      -65.488    -373.760     127.242
  C      -66.745    -374.598     129.034
  C      -66.881    -375.642     129.854
  O      -69.581    -376.027     135.844
  O      -67.407    -375.702     134.529
  H      -64.008    -376.925     131.737
  H      -69.033    -375.632     136.545
  H      -64.963    -376.175     126.714
  H      -67.178    -373.626     129.231
  H      -67.461    -375.545     130.768
  H      -65.626    -378.749     130.190
  H      -66.132    -376.420     132.098
  H      -66.846    -377.860     133.870
  H      -68.569    -379.337     132.347
  H      -68.462    -376.297     131.903
  H      -69.820    -377.352     131.549
  P      -64.851    -379.791     133.912
  C      -66.374    -380.508     135.850
  O      -65.328    -379.652     135.434
  O      -63.681    -378.948     133.523
  O      -64.524    -381.357     133.785
  H      -63.597    -381.519     134.038
  H      -66.262    -380.704     136.919
  H      -66.355    -381.457     135.308
  H      -67.336    -380.014     135.678
  H      -71.236    -373.261     133.857
  H      -70.839    -373.977     135.401
  H      -71.598    -374.944     134.159

 3  4  5  6  7  8  9  10  11  12  13  23  28  29  30  31  32 0
 6-311+G(2d,p)
 ****
 33  34 0
 6-311+G(2d,p)
 ****
 1  2  14  15  16  17  18  19  20  21  22  24  25  26  27 0
 3-21G
 ****
 35  36  37  38  39  40  41  42  43  44  45 0
 3-21G
 ****


