%nproc=1
%NoSave
%Mem=1900MB
#P OB98/GEN NMR

erre ene a

0 1
  C     -334.326    -487.297    -890.273
  O     -335.038    -488.304    -890.953
  H     -333.663    -486.762    -890.953
  H     -335.041    -486.581    -889.843
  H     -333.741    -487.730    -889.453
  P     -334.169    -489.460    -891.643
  C     -332.702    -489.610    -893.783
  O     -333.530    -488.808    -892.963
  C     -332.510    -488.939    -895.143
  O     -331.980    -487.594    -894.973
  C     -331.517    -489.653    -896.063
  O     -332.099    -490.757    -896.723
  C     -331.175    -488.533    -897.033
  O     -332.256    -488.372    -897.973
  C     -331.117    -487.322    -896.093
  N     -327.033    -484.245    -896.523
  C     -328.219    -484.276    -897.183
  N     -329.252    -485.118    -897.013
  C     -328.972    -486.023    -896.043
  C     -327.799    -486.117    -895.293
  C     -326.808    -485.168    -895.563
  N     -325.604    -485.146    -894.913
  N     -327.881    -487.187    -894.433
  C     -329.077    -487.699    -894.623
  N     -329.774    -487.047    -895.603
  O     -335.274    -490.459    -892.233
  O     -333.189    -490.153    -890.753
  H     -332.591    -489.267    -898.183
  H     -334.883    -491.337    -892.383
  H     -328.356    -483.499    -897.943
  H     -329.474    -488.559    -894.093
  H     -331.472    -486.400    -896.583
  H     -330.269    -488.719    -897.603
  H     -330.600    -489.944    -895.513
  H     -333.500    -488.855    -895.633
  H     -333.168    -490.582    -893.933
  H     -324.884    -484.547    -895.303
  H     -325.366    -485.915    -894.293
  H     -331.728    -489.756    -893.293
  P     -331.102    -491.841    -897.353
  C     -329.233    -491.709    -899.163
  O     -330.429    -491.131    -898.623
  O     -332.091    -492.920    -898.003
  O     -330.146    -492.471    -896.383
  H     -331.677    -493.804    -898.043
  H     -328.904    -491.130    -900.000
  H     -329.433    -492.712    -899.478
  H     -328.470    -491.717    -898.412

 6  7  8  9  10  11  12  13  14  15  25  28  32  33  34  35 0
 6-311+G(2d,p)
 ****
 36  39  40 0
 6-311+G(2d,p)
 ****
 1  2  3  4  5  16  17  18  19  20  21  22  23  24 0
 3-21G
 ****
 26  27  29  30  31  37  38  41  42  43  44  45  46  47 0
 3-21G
 ****
 48 0
 3-21G
 ****


