%nproc=1
%NoSave
%Mem=1900MB
#P OB98/GEN NMR

erre ene a

0 1
  C      456.474     787.725    -404.434
  O      456.519     788.873    -405.262
  P      455.140     789.415    -405.868
  C      456.511     791.068    -407.345
  O      455.470     790.105    -407.277
  C      456.159     792.141    -408.377
  O      454.940     792.815    -407.995
  C      457.211     793.232    -408.513
  O      458.307     792.809    -409.295
  C      456.399     794.360    -409.152
  O      456.315     794.193    -410.573
  C      455.019     794.169    -408.496
  N      454.765     795.154    -407.443
  C      454.613     796.466    -407.868
  O      454.716     796.813    -409.046
  N      454.385     797.393    -406.878
  C      454.337     797.143    -405.541
  O      454.188     798.024    -404.705
  C      454.538     795.730    -405.152
  C      454.734     794.823    -406.108
  O      454.767     790.657    -404.919
  O      454.041     788.406    -405.915
  H      455.908     795.013    -410.932
  H      453.795     790.700    -404.799
  H      454.242     798.348    -407.167
  H      454.507     795.500    -404.094
  H      454.897     793.785    -405.837
  H      454.236     794.265    -409.251
  H      456.853     795.336    -408.976
  H      457.546     793.547    -407.518
  H      455.983     791.651    -409.342
  H      457.442     790.574    -407.637
  H      456.657     791.518    -406.358
  P      459.715     793.530    -409.055
  C      460.754     791.223    -409.686
  O      460.793     792.625    -409.816
  O      459.935     793.232    -407.492
  O      459.688     794.982    -409.403
  H      459.560     792.371    -407.228
  H      459.726     790.849    -409.617
  H      461.310     790.925    -408.796
  H      461.234     790.770    -410.567
  H      457.463     787.483    -404.106
  H      456.070     786.902    -404.986
  H      455.855     787.922    -403.584

 3  4  5  6  7  8  9  10  11  12  13  23  28  29  30  31  32 0
 6-311+G(2d,p)
 ****
 33  34 0
 6-311+G(2d,p)
 ****
 1  2  14  15  16  17  18  19  20  21  22  24  25  26 0
 3-21G
 ****
 27  35  36  37  38  39  40  41  42  43  44  45 0
 3-21G
 ****


