%nproc=1
%NoSave
%Mem=1900MB
#P OB98/GEN NMR

erre ene a

0 1
  C     -389.506    -469.033     119.026
  O     -388.194    -468.859     119.548
  P     -387.579    -470.081     120.385
  C     -388.496    -471.100     122.605
  O     -388.145    -469.943     121.870
  C     -389.145    -470.711     123.932
  O     -390.504    -470.255     123.703
  C     -389.235    -471.837     124.946
  O     -388.004    -471.991     125.616
  C     -390.379    -471.357     125.832
  O     -389.905    -470.383     126.793
  C     -391.333    -470.711     124.815
  N     -396.180    -472.045     125.329
  C     -395.409    -471.213     126.103
  N     -396.020    -470.610     127.149
  N     -394.131    -470.981     125.879
  C     -393.649    -471.658     124.811
  C     -394.311    -472.529     123.975
  C     -395.727    -472.723     124.200
  O     -396.483    -473.377     123.481
  N     -393.478    -473.044     123.015
  C     -392.321    -472.455     123.254
  N     -392.366    -471.593     124.327
  O     -386.032    -469.687     120.510
  O     -387.767    -471.435     119.771
  H     -390.636    -470.173     127.406
  H     -385.494    -470.155     119.842
  H     -397.157    -472.164     125.527
  H     -391.426    -472.608     122.675
  H     -391.830    -469.827     125.221
  H     -390.824    -472.175     126.409
  H     -396.985    -470.757     127.404
  H     -389.525    -472.777     124.447
  H     -395.457    -470.004     127.738
  H     -388.582    -469.861     124.333
  H     -387.595    -471.685     122.799
  H     -389.188    -471.722     121.997
  P     -387.822    -473.287     126.549
  C     -389.921    -474.579     127.358
  O     -389.139    -473.410     127.459
  O     -386.684    -472.850     127.582
  O     -387.440    -474.530     125.811
  H     -386.115    -473.608     127.785
  H     -390.401    -474.765     128.335
  H     -389.310    -475.460     127.105
  H     -390.689    -474.454     126.600
  H     -389.797    -468.152     118.492
  H     -390.190    -469.205     119.831
  H     -389.517    -469.872     118.362

 3  4  5  6  7  8  9  10  11  12  23  26  30  31 0
 6-311+G(2d,p)
 ****
 33  35  36  37  38 0
 6-311+G(2d,p)
 ****
 1  2  13  14  15  16  17  18  19  20  21  22  24  25 0
 3-21G
 ****
 27  28  29  32  34  39  40  41  42  43  44  45  46  47  48  49 0
 3-21G
 ****


