%nproc=1
%NoSave
%Mem=1900MB
#P OB98/GEN NMR

erre ene a

0 1
  C      119.194    -104.883     -35.013
  O      119.588    -105.931     -35.902
  P      120.121    -105.487     -37.351
  C      118.463    -106.959     -38.697
  O      118.921    -105.645     -38.407
  C      118.685    -107.329     -40.168
  O      117.909    -106.468     -41.044
  C      120.146    -107.226     -40.611
  O      120.375    -108.249     -41.584
  C      120.200    -105.876     -41.302
  O      121.317    -105.792     -42.186
  C      118.820    -105.853     -41.980
  N      118.385    -104.505     -42.348
  C      118.154    -104.260     -43.704
  O      118.383    -105.135     -44.541
  N      117.708    -103.020     -44.087
  C      117.561    -102.087     -43.197
  N      117.119    -100.876     -43.641
  C      117.848    -102.281     -41.763
  C      118.248    -103.504     -41.414
  O      121.135    -106.659     -37.748
  O      120.799    -104.155     -37.357
  H      122.135    -105.926     -41.657
  H      121.982    -106.281     -38.048
  H      117.731    -101.468     -41.061
  H      118.481    -103.745     -40.387
  H      118.826    -106.462     -42.891
  H      120.280    -105.071     -40.560
  H      120.861    -107.332     -39.787
  H      118.327    -108.356     -40.319
  H      116.926    -100.785     -44.631
  H      117.396    -107.038     -38.467
  H      116.971    -100.081     -43.040
  H      118.970    -107.667     -38.031
  P      121.400    -109.428     -41.222
  C      122.913    -108.864     -43.221
  O      122.812    -108.941     -41.811
  O      120.984    -110.554     -42.290
  O      121.400    -109.972     -39.833
  H      121.496    -111.368     -42.126
  H      123.870    -108.404     -43.477
  H      122.104    -108.247     -43.629
  H      122.878    -109.868     -43.654
  H      118.861    -105.306     -34.088
  H      118.398    -104.321     -35.455
  H      120.028    -104.238     -34.830

 3  4  5  6  7  8  9  10  11  12  13  21  23  27  28  29  30  32 0
 6-311+G(2d,p)
 ****
 34  35 0
 6-311+G(2d,p)
 ****
 1  2  14  15  16  17  18  19  20  22  24  25  26 0
 3-21G
 ****
 31  33  36  37  38  39  40  41  42  43  44  45  46 0
 3-21G
 ****


