%nproc=1
%NoSave
%Mem=1900MB
#P OB98/GEN NMR

erre ene a

0 1
  C      709.256    -211.697     806.735
  O      708.585    -210.467     806.592
  H      710.334    -211.521     806.697
  H      708.981    -212.381     805.921
  H      709.010    -212.161     807.699
  P      706.977    -210.514     806.638
  C      705.106    -211.321     805.034
  O      706.498    -211.082     805.222
  C      704.633    -210.656     803.743
  O      705.132    -211.383     802.599
  C      703.132    -210.610     803.580
  O      702.528    -209.585     804.351
  C      702.997    -210.384     802.079
  O      703.128    -209.003     801.739
  C      704.184    -211.201     801.516
  N      703.537    -213.914     797.233
  C      704.044    -212.661     797.439
  N      704.194    -212.021     798.628
  C      703.779    -212.792     799.653
  C      703.234    -214.068     799.579
  C      703.125    -214.632     798.289
  N      702.583    -215.883     798.065
  N      702.898    -214.531     800.825
  C      703.226    -213.548     801.661
  N      703.769    -212.488     800.990
  O      706.575    -208.963     806.586
  O      706.404    -211.196     807.837
  H      702.530    -208.512     802.344
  H      706.360    -208.649     807.497
  H      704.370    -212.122     796.559
  H      703.084    -213.558     802.730
  H      704.707    -210.659     800.713
  H      702.028    -210.733     801.720
  H      702.692    -211.580     803.831
  H      705.063    -209.634     803.700
  H      704.545    -210.916     805.880
  H      704.940    -212.404     804.975
  H      702.470    -216.194     797.116
  H      702.180    -216.384     798.841
  P      701.123    -209.893     805.055
  C      698.665    -210.246     804.251
  O      700.003    -209.857     803.929
  O      700.832    -208.599     805.937
  O      701.114    -211.144     805.872
  H      700.384    -208.856     806.784
  H      698.049    -210.161     803.380
  H      698.284    -209.608     805.021
  H      698.661    -211.260     804.593

 6  7  8  9  10  11  12  13  14  15  25  28  32  33  34  35 0
 6-311+G(2d,p)
 ****
 36  37  40 0
 6-311+G(2d,p)
 ****
 1  2  3  4  5  16  17  18  19  20  21  22  23  24 0
 3-21G
 ****
 26  27  29  30  31  38  39 41  42  43  44  45  46  47  48 0
 3-21G
 ****


