%nproc=1
%NoSave
%Mem=1900MB
#P OB98/GEN NMR

erre ene a

0 1
  C      124.179     -29.191     -12.116
  O      122.789     -29.305     -12.332
  H      124.696     -29.885     -12.783
  H      124.419     -29.457     -11.083
  H      124.521     -28.174     -12.329
  P      121.835     -28.264     -11.570
  C      122.748     -26.016     -12.496
  O      121.703     -26.977     -12.524
  C      122.229     -24.654     -12.961
  O      123.250     -23.654     -12.707
  C      121.881     -24.605     -14.451
  O      120.712     -23.799     -14.621
  C      123.074     -23.903     -15.074
  O      122.749     -23.253     -16.303
  C      123.507     -22.961     -13.943
  N      124.911     -22.581     -14.070
  C      125.250     -21.789     -15.170
  O      124.385     -21.452     -15.982
  N      126.563     -21.446     -15.362
  C      127.473     -21.924     -14.571
  N      128.762     -21.572     -14.830
  C      127.171     -22.819     -13.438
  C      125.881     -23.096     -13.242
  O      122.748     -27.735     -10.368
  O      120.534     -28.818     -11.095
  H      123.586     -23.042     -16.771
  H      122.209     -27.515      -9.584
  H      127.966     -23.213     -12.822
  H      125.563     -23.750     -12.439
  H      122.894     -22.049     -13.945
  H      123.863     -24.636     -15.281
  H      121.710     -25.592     -14.886
  H      121.360     -24.386     -12.348
  H      128.931     -20.970     -15.628
  H      123.547     -26.340     -13.169
  H      129.553     -21.919     -14.310
  H      123.148     -25.944     -11.479
  P      119.301     -24.509     -14.347
  C      119.448     -24.454     -11.753
  O      118.763     -24.016     -12.919
  O      119.701     -26.038     -14.095
  O      118.331     -24.370     -15.474
  H      119.422     -26.584     -14.854
  H      118.974     -24.044     -10.886
  H      120.465     -24.125     -11.792
  H      119.420     -25.522     -11.703

 6  7  8  9  10  11  12  13  14  15  16  26  30  31  32  33  35 0
 6-311+G(2d,p)
 ****
 37  38 0
 6-311+G(2d,p)
 ****
 1  2  3  4  5  17  18  19  20  21  22  23  24  25 0
 3-21G
 ****
 27  28  29  34  36  39  40  41  42  43  44  45  46 0
 3-21G
 ****


