%nproc=1
%NoSave
%Mem=1900MB
#P OB98/GEN NMR

erre ene a

0 1
  C      131.434    -206.099      25.579
  O      130.702    -205.775      26.744
  H      130.749    -206.506      24.837
  H      132.193    -206.853      25.808
  H      131.909    -205.202      25.166
  P      131.522    -205.128      27.972
  C      130.282    -202.843      27.854
  O      130.530    -204.028      28.602
  C      128.964    -202.198      28.301
  O      127.860    -203.002      27.819
  C      128.828    -202.071      29.826
  O      128.276    -200.790      30.147
  C      127.860    -203.183      30.207
  O      127.157    -202.891      31.406
  C      126.996    -203.290      28.940
  N      126.385    -204.623      28.807
  C      124.988    -204.661      28.763
  O      124.322    -203.625      28.841
  N      124.373    -205.886      28.680
  C      125.080    -206.976      28.703
  N      124.407    -208.162      28.648
  C      126.555    -206.979      28.804
  C      127.134    -205.774      28.851
  O      132.640    -204.256      27.232
  O      132.072    -206.108      28.958
  H      127.810    -202.665      32.100
  H      133.347    -203.966      27.861
  H      127.104    -207.909      28.838
  H      128.214    -205.677      28.919
  H      126.193    -202.540      28.954
  H      128.421    -204.110      30.352
  H      129.775    -202.194      30.343
  H      128.872    -201.220      27.818
  H      123.400    -208.118      28.593
  H      130.230    -203.095      26.787
  H      124.856    -209.060      28.687
  H      131.099    -202.134      28.019
  P      129.302    -199.733      30.790
  C      128.560    -197.814      29.211
  O      128.704    -198.258      30.554
  O      130.577    -199.790      29.820
  O      129.662    -200.040      32.220
  H      131.274    -200.364      30.199
  H      128.154    -196.824      29.204
  H      127.901    -198.473      28.686
  H      129.517    -197.811      28.732

 6  7  8  9  10  11  12  13  14  15  16  26  30  31  32  33  35 0
 6-311+G(2d,p)
 ****
 37  38 0
 6-311+G(2d,p)
 ****
 1  2  3  4  5  17  18  19  20  21  22  23  24  25 0
 3-21G
 ****
 27  28  29  34  36  39  40  41  42  43  44  45  46 0
 3-21G
 ****


