%nproc=1
%NoSave
%Mem=1900MB
#P OB98/GEN NMR

erre ene a

0 1
  C       69.258    -760.283    -231.153
  O       70.353    -761.036    -230.666
  P       70.208    -762.646    -230.731
  C       70.300    -762.707    -228.117
  O       69.627    -763.108    -229.307
  C       70.414    -763.901    -227.170
  O       69.112    -764.319    -226.723
  C       71.073    -765.123    -227.792
  O       72.477    -765.004    -227.777
  C       70.539    -766.237    -226.891
  O       71.306    -766.325    -225.673
  C       69.107    -765.771    -226.621
  N       64.630    -768.127    -226.886
  C       65.432    -767.860    -225.788
  N       64.944    -768.235    -224.585
  N       66.598    -767.280    -225.863
  C       66.963    -766.964    -227.140
  C       66.267    -767.194    -228.292
  C       64.955    -767.792    -228.199
  O       64.161    -767.964    -229.118
  N       66.964    -766.763    -229.400
  C       68.071    -766.241    -228.894
  N       68.111    -766.320    -227.522
  O       71.736    -763.143    -230.717
  O       69.440    -763.174    -231.910
  H       71.016    -767.120    -225.177
  H       72.034    -763.349    -231.623
  H       63.739    -768.565    -226.761
  H       68.849    -765.774    -229.477
  H       68.777    -766.023    -225.603
  H       70.606    -767.220    -227.373
  H       64.071    -768.710    -224.450
  H       70.705    -765.272    -228.820
  H       65.529    -768.049    -223.761
  H       70.989    -763.569    -226.284
  H       69.720    -761.905    -227.632
  H       71.287    -762.309    -228.364
  P       73.318    -765.891    -228.825
  C       73.011    -768.152    -227.591
  O       72.740    -767.383    -228.743
  O       74.765    -765.995    -228.143
  O       73.397    -765.298    -230.193
  H       75.447    -765.983    -228.835
  H       72.178    -768.850    -227.432
  H       73.105    -767.521    -226.691
  H       73.928    -768.711    -227.736
  H       69.472    -759.239    -231.057
  H       68.382    -760.521    -230.587
  H       69.092    -760.520    -232.183

 3  4  5  6  7  8  9  10  11  12  23  26  30  31 0
 6-311+G(2d,p)
 ****
 33  35  36  37  38 0
 6-311+G(2d,p)
 ****
 1  2  13  14  15  16  17  18  19  20  21  22  24  25 0
 3-21G
 ****
 27  28  29  32  34  39  40  41  42  43  44  45  46  47  48  49 0
 3-21G
 ****


