%nproc=1
%NoSave
%Mem=1900MB
#P OB98/GEN NMR

erre ene a

0 1
  C      390.428     962.490     748.279
  O      389.828     963.571     747.568
  P      388.344     963.352     747.003
  C      387.518     964.112     749.342
  O      387.411     963.151     748.296
  C      386.145     964.577     749.792
  O      385.499     965.293     748.715
  C      385.181     963.456     750.169
  O      385.400     962.978     751.486
  C      383.837     964.168     750.057
  O      383.588     964.909     751.263
  C      384.066     965.124     748.867
  N      379.820     964.185     746.277
  C      379.986     964.700     747.556
  N      378.865     965.029     748.212
  N      381.153     964.866     748.121
  C      382.193     964.522     747.317
  C      382.155     964.003     746.046
  C      380.859     963.775     745.444
  O      380.648     963.264     744.346
  N      383.417     963.796     745.552
  C      384.221     964.222     746.509
  N      383.515     964.650     747.612
  O      388.402     961.897     746.368
  O      387.892     964.375     746.012
  H      383.664     964.281     752.005
  H      387.733     961.798     745.666
  H      378.904     964.092     745.877
  H      385.299     964.234     746.441
  H      383.646     966.122     749.082
  H      382.999     963.477     749.922
  H      377.947     965.038     747.788
  H      385.228     962.644     749.432
  H      378.958     965.449     749.135
  H      386.263     965.267     750.630
  H      388.090     964.981     748.995
  H      388.058     963.652     750.195
  P      384.813     961.522     751.829
  C      386.279     960.509     749.933
  O      384.975     960.671     750.476
  O      383.234     961.779     751.939
  O      385.361     960.917     753.065
  H      382.821     961.107     752.513
  H      387.036     960.418     750.710
  H      386.509     961.385     749.284
  H      386.288     959.615     749.313
  H      391.410     962.773     748.596
  H      390.492     961.635     747.640
  H      389.832     962.252     749.135

 3  4  5  6  7  8  9  10  11  12  23  26  30  31  33  0
 6-311+G(2d,p)
 ****
 35  36  37  38 0
 6-311+G(2d,p)
 ****
 1  2  13  14  15  16  17  18  19  20  21  22  24  25  27  28  29 0
 3-21G
 ****
 32  34  39  40  41  42  43  44  45  46  47  48  49 0
 3-21G
 ****


