%nproc=1
%NoSave
%Mem=1900MB
#P OB98/GEN NMR

erre ene a

0 1
  C     -191.965    -263.457    -311.586
  O     -192.961    -264.366    -311.087
  P     -194.424    -264.516    -311.727
  C     -196.771    -263.471    -311.459
  O     -195.389    -263.383    -311.121
  C     -197.509    -262.157    -311.202
  O     -197.458    -261.820    -309.773
  C     -196.951    -260.938    -311.970
  O     -198.075    -260.156    -312.372
  C     -196.122    -260.240    -310.897
  O     -195.830    -258.887    -311.199
  C     -197.047    -260.435    -309.691
  N     -196.443    -260.156    -308.392
  C     -196.610    -258.866    -307.865
  O     -197.182    -257.987    -308.496
  N     -196.088    -258.594    -306.618
  C     -195.454    -259.522    -305.968
  N     -194.971    -259.181    -304.732
  C     -195.242    -260.879    -306.480
  C     -195.759    -261.124    -307.687
  O     -194.986    -265.894    -311.625
  O     -194.255    -264.086    -313.266
  H     -194.850    -264.646    -313.818
  H     -196.643    -258.365    -311.046
  H     -194.718    -261.620    -305.895
  H     -195.674    -262.116    -308.129
  H     -197.945    -259.825    -309.815
  H     -195.173    -260.775    -310.781
  H     -196.383    -261.224    -312.863
  H     -198.564    -262.306    -311.442
  H     -195.148    -258.239    -304.402
  H     -197.228    -264.264    -310.844
  H     -194.475    -259.825    -304.133
  H     -196.865    -263.767    -312.512
  P     -198.350    -259.904    -313.929
  C     -197.151    -258.605    -315.850
  O     -197.255    -258.861    -314.465
  O     -199.675    -258.989    -313.887
  O     -198.595    -261.115    -314.766
  H     -200.167    -259.100    -314.715
  H     -197.053    -257.528    -316.006
  H     -198.025    -258.964    -316.401
  H     -196.250    -259.106    -316.239
  H     -191.077    -263.541    -310.995
  H     -192.337    -262.455    -311.531
  H     -191.740    -263.698    -312.604

 3  4  5  6  7  8  9  10  11  12  13  24  27  28  29  30  32 0
 6-311+G(2d,p)
 ****
 34  35 0
 6-311+G(2d,p)
 ****
 1  2  14  15  16  17  18  19  20  21  22  23  25  26 0
 3-21G
 ****
 31  33  36  37  38  39  40  41  42  43  44  45  46 0
 3-21G
 ****


