%nproc=1
%NoSave
%Mem=1900MB
#P OB98/GEN NMR

erre ene a

0 1
  C      478.111      62.458    -308.354
  O      477.488      61.283    -308.905
  P      478.135      60.592    -310.205
  C      479.716      58.945    -308.928
  O      479.592      60.042    -309.820
  C      480.233      57.713    -309.675
  O      481.591      57.925    -310.130
  C      480.293      56.445    -308.833
  O      479.013      55.865    -308.652
  C      481.242      55.581    -309.651
  O      480.543      54.921    -310.721
  C      482.223      56.629    -310.212
  N      483.511      56.621    -309.522
  C      484.350      55.543    -309.793
  O      484.029      54.604    -310.520
  N      485.564      55.564    -309.164
  C      485.989      56.496    -308.260
  O      487.083      56.449    -307.716
  C      485.028      57.565    -307.955
  C      483.851      57.573    -308.584
  O      478.492      61.862    -311.116
  O      477.248      59.645    -310.944
  H      481.206      54.397    -311.209
  H      478.470      61.609    -312.057
  H      486.202      54.807    -309.368
  H      485.314      58.316    -307.224
  H      483.132      58.356    -308.370
  H      482.400      56.450    -311.280
  H      481.724      54.800    -309.053
  H      480.757      56.663    -307.863
  H      479.601      57.559    -310.559
  H      478.738      58.718    -308.495
  H      480.402      59.223    -308.116
  P      478.618      55.427    -307.156
  C      477.683      57.819    -306.671
  O      478.581      56.793    -306.317
  O      479.964      54.692    -306.697
  O      477.392      54.577    -307.102
  H      480.759      55.092    -307.091
  H      476.751      57.419    -307.083
  H      478.154      58.470    -307.416
  H      477.449      58.408    -305.780
  H      477.558      62.787    -307.499
  H      478.124      63.234    -309.091
  H      479.114      62.226    -308.063

 3  4  5  6  7  8  9  10  11  12  13  23  28  29  30  31  32 0
 6-311+G(2d,p)
 ****
 33  34 0
 6-311+G(2d,p)
 ****
 1  2  14  15  16  17  18  19  20  21  22  24  25  26 0
 3-21G
 ****
 27  35  36  37  38  39  40  41  42  43  44  45 0
 3-21G
 ****


