%nproc=1
%NoSave
%Mem=1900MB
#P OB98/GEN NMR

erre ene a

0 1
  C      -22.307    -898.180     465.693
  O      -20.984    -898.210     466.173
  H      -22.585    -899.140     465.258
  H      -22.981    -897.960     466.524
  H      -22.414    -897.390     464.937
  P      -19.830    -898.550     465.102
  C      -18.839    -896.170     465.382
  O      -18.588    -897.580     465.411
  C      -17.614    -895.430     465.910
  O      -17.580    -895.540     467.361
  C      -16.258    -895.910     465.356
  O      -15.567    -894.850     464.712
  C      -15.462    -896.320     466.589
  O      -14.097    -895.950     466.531
  C      -16.197    -895.610     467.728
  N      -13.279    -895.950     471.905
  C      -13.457    -894.930     471.017
  N      -14.333    -894.870     469.988
  C      -15.088    -895.980     469.935
  C      -15.040    -897.080     470.780
  C      -14.064    -897.050     471.795
  N      -13.859    -898.090     472.667
  N      -15.989    -898.020     470.402
  C      -16.547    -897.530     469.320
  N      -16.030    -896.310     468.981
  O      -20.437    -897.990     463.724
  O      -19.484    -900.000     464.997
  H      -13.677    -896.500     465.837
  H      -20.332    -898.650     463.028
  H      -12.813    -894.090     471.146
  H      -17.298    -898.020     468.716
  H      -15.842    -894.570     467.856
  H      -15.533    -897.410     466.707
  H      -16.378    -896.760     464.666
  H      -17.742    -894.350     465.679
  H      -19.706    -895.940     466.019
  H      -13.065    -898.030     473.272
  H      -14.372    -898.950     472.527
  H      -19.063    -895.870     464.356
  P      -14.581    -895.250     463.486
  C      -15.743    -893.680     461.779
  O      -14.548    -894.020     462.465
  O      -15.432    -896.370     462.703
  O      -13.251    -895.770     463.940
  H      -14.823    -896.980     462.234
  H      -15.560    -892.843     461.138
  H      -16.502    -893.426     462.489
  H      -16.067    -894.514     461.193

 6  7  8  9  10  11  12  13  14  15  25  28  32  33  34  35 0
 6-311+G(2d,p)
 ****
 36  39  40 0
 6-311+G(2d,p)
 ****
 1  2  3  4  5  16  17  18  19  20  21  22  23  24 0
 3-21G
 ****
 26  27  29  30  31  37  38  41  42  43  44  45  46  47  48 0
 3-21G
 ****


