%nproc=1
%NoSave
%Mem=1900MB
#P OB98/GEN NMR

erre ene a

0 1
  C     -936.917     963.074     232.196
  O     -936.969     964.387     232.728
  H     -936.594     963.131     231.154
  H     -937.915     962.634     232.231
  H     -936.215     962.452     232.757
  P     -937.037     964.527     234.324
  C     -939.448     965.504     234.387
  O     -938.589     964.423     234.733
  C     -940.832     965.300     234.995
  O     -940.701     965.194     236.431
  C     -941.817     966.443     234.700
  O     -943.135     965.887     234.522
  C     -941.811     967.235     236.006
  O     -943.002     968.003     236.178
  C     -941.654     966.099     237.017
  N     -943.283     968.526     241.104
  C     -943.987     967.982     240.041
  N     -945.326     968.170     240.034
  N     -943.419     967.320     239.070
  C     -942.076     967.194     239.206
  C     -941.271     967.683     240.203
  C     -941.905     968.424     241.276
  O     -941.334     968.948     242.226
  N     -939.946     967.390     239.951
  C     -939.960     966.748     238.800
  N     -941.227     966.600     238.306
  O     -936.696     966.081     234.548
  O     -936.110     963.637     235.083
  H     -943.765     967.421     236.044
  H     -935.739     966.183     234.732
  H     -943.768     969.032     241.821
  H     -939.078     966.393     238.282
  H     -942.589     965.548     237.186
  H     -940.956     967.907     236.038
  H     -945.829     968.632     240.761
  H     -941.554     967.056     233.838
  H     -945.856     967.743     239.275
  H     -941.236     964.337     234.639
  H     -939.531     965.566     233.294
  H     -938.998     966.444     234.753
  P     -943.554     965.442     233.045
  C     -944.858     967.675     232.778
  O     -943.966     966.735     232.193
  O     -944.942     964.691     233.273
  O     -942.558     964.531     232.381
  H     -945.042     963.950     232.643
  H     -945.034     968.475     232.090
  H     -944.427     968.065     233.676
  H     -945.785     967.192     233.008

 6  7  8  9  10  11  12  13  14  15  26  29  33  34 0
 6-311+G(2d,p)
 ****
 36  38  39  40  41 0
 6-311+G(2d,p)
 ****
 1  2  3  4  5  16  17  18  19  20  21  22  23  24  25 0
 3-21G
 ****
 27  28  30  31  32  35  37  42  43  44  45  46  47 0
 3-21G
 ****
 48  49 0
 3-21G
 ****


