%nproc=1
%NoSave
%Mem=1900MB
#P OB98/GEN NMR

erre ene a

0 1
  C      231.899    -280.702    -130.806
  O      230.646    -280.095    -130.460
  P      229.321    -280.673    -131.154
  C      228.486    -282.112    -129.155
  O      228.241    -280.999    -130.007
  C      227.809    -281.930    -127.784
  O      228.418    -280.836    -127.047
  C      226.310    -281.608    -127.884
  O      225.659    -282.147    -126.723
  C      226.293    -280.095    -127.806
  O      224.994    -279.604    -127.449
  C      227.390    -279.856    -126.774
  N      227.066    -275.210    -124.835
  C      226.326    -276.349    -124.552
  N      225.393    -276.232    -123.588
  N      226.498    -277.493    -125.165
  C      227.501    -277.457    -126.081
  C      228.294    -276.400    -126.457
  C      228.079    -275.136    -125.788
  O      228.691    -274.084    -125.999
  N      229.183    -276.758    -127.436
  C      228.916    -278.034    -127.666
  N      227.935    -278.512    -126.841
  O      229.786    -282.131    -131.649
  O      228.823    -279.845    -132.293
  H      224.830    -279.865    -126.516
  H      229.870    -282.130    -132.626
  H      226.886    -274.348    -124.342
  H      229.410    -278.648    -128.407
  H      227.040    -280.014    -125.743
  H      226.558    -279.668    -128.780
  H      225.241    -275.395    -123.043
  H      225.814    -281.995    -128.782
  H      224.860    -277.063    -123.338
  H      227.956    -282.846    -127.204
  H      229.563    -282.244    -129.010
  H      228.139    -283.024    -129.651
  P      224.312    -282.979    -126.961
  C      225.611    -284.927    -128.080
  O      224.749    -284.518    -127.040
  O      223.909    -282.623    -128.476
  O      223.207    -282.670    -126.004
  H      222.954    -282.735    -128.607
  H      226.626    -285.057    -127.681
  H      225.639    -284.200    -128.900
  H      225.256    -285.886    -128.485
  H      232.689    -280.218    -130.271
  H      232.066    -280.601    -131.858
  H      231.876    -281.740    -130.547

 3  4  5  6  7  8  9  10  11  12  23  26  30  31 0
 6-311+G(2d,p)
 ****
 33  35  36  37  38 0
 6-311+G(2d,p)
 ****
 1  2  13  14  15  16  17  18  19  20  21  22  24  25 0
 3-21G
 ****
 27  28  29  32  34  39  40  41  42  43  44  45  46  47  48  49 0
 3-21G
 ****


