%nproc=1
%NoSave
%Mem=1900MB
#P OB98/GEN NMR

erre ene a

0 1
  C     -416.365     166.627    -361.222
  O     -416.641     167.110    -362.538
  P     -415.516     168.040    -363.213
  C     -417.116     169.591    -364.555
  O     -416.106     168.592    -364.604
  C     -418.010     169.487    -365.796
  O     -417.244     169.548    -367.017
  C     -418.791     168.178    -365.875
  O     -419.876     168.180    -364.966
  C     -419.197     168.178    -367.342
  O     -420.333     169.041    -367.555
  C     -417.959     168.788    -368.021
  N     -417.028     165.878    -372.128
  C     -417.993     166.777    -371.861
  N     -418.180     167.512    -370.737
  C     -417.211     167.252    -369.842
  C     -416.156     166.360    -369.970
  C     -416.084     165.652    -371.186
  N     -415.101     164.723    -371.449
  N     -415.372     166.363    -368.837
  C     -415.959     167.221    -368.023
  N     -417.066     167.789    -368.591
  O     -414.394     166.994    -363.657
  O     -414.974     169.084    -362.294
  H     -421.067     168.686    -367.013
  H     -413.609     167.086    -363.089
  H     -418.730     166.933    -372.647
  H     -415.618     167.460    -367.022
  H     -418.225     169.478    -368.828
  H     -419.468     167.185    -367.713
  H     -418.132     167.330    -365.665
  H     -418.708     170.340    -365.782
  H     -416.670     170.586    -364.511
  H     -415.160     164.196    -372.310
  H     -414.445     164.475    -370.719
  H     -417.701     169.458    -363.638
  P     -420.170     166.821    -364.156
  C     -422.668     166.193    -364.178
  O     -421.674     167.025    -363.613
  O     -419.289     167.020    -362.848
  O     -419.934     165.564    -364.930
  H     -419.394     167.920    -362.471
  H     -423.624     166.417    -363.698
  H     -422.421     165.139    -364.014
  H     -422.754     166.393    -365.248
  H     -417.182     166.025    -360.884
  H     -416.235     167.456    -360.558
  H     -415.471     166.039    -361.238

 3  4  5  6  7  8  9  10  11  12  22  25  29  30  31  32 0
 6-311+G(2d,p)
 ****
 33  36  37 0
 6-311+G(2d,p)
 ****
 1  2  13  14  15  16  17  18  19  20  21  23  24  26 0
 3-21G
 ****
 27  28  34  35  38  39  40  41  42  43  44  45  46  47  48 0
 3-21G
 ****


