%nproc=1
%NoSave
%Mem=1900MB
#P OB98/GEN NMR

erre ene a

0 1
  C     -152.613      45.683     -18.676
  O     -153.983      45.345     -18.748
  H     -152.049      45.000     -19.315
  H     -152.243      45.590     -17.652
  H     -152.459      46.704     -19.036
  P     -155.017      46.093     -17.779
  C     -155.544      48.246     -19.090
  O     -155.991      46.948     -18.725
  C     -156.601      48.970     -19.926
  O     -156.596      48.406     -21.264
  C     -158.021      48.845     -19.361
  O     -158.702      50.083     -19.579
  C     -158.621      47.748     -20.214
  O     -160.034      47.824     -20.242
  C     -157.934      47.969     -21.565
  N     -157.945      46.749     -22.371
  C     -158.780      46.748     -23.493
  O     -159.448      47.746     -23.770
  N     -158.893      45.603     -24.236
  C     -158.270      44.529     -23.864
  N     -158.457      43.417     -24.624
  C     -157.401      44.474     -22.672
  C     -157.282      45.608     -21.980
  O     -154.419      46.857     -16.645
  O     -155.963      44.912     -17.255
  H     -160.306      48.747     -20.437
  H     -155.605      44.537     -16.429
  H     -156.909      43.553     -22.399
  H     -156.674      45.658     -21.084
  H     -158.432      48.768     -22.130
  H     -158.345      46.768     -19.804
  H     -158.037      48.591     -18.297
  H     -156.308      50.022     -20.023
  H     -159.082      43.496     -25.417
  H     -154.626      48.133     -19.677
  H     -158.060      42.514     -24.410
  H     -155.316      48.826     -18.190
  P     -159.033      51.062     -18.352
  C     -156.776      52.257     -18.526
  O     -158.191      52.421     -18.525
  O     -158.923      50.431     -17.002
  O     -160.542      51.529     -18.631
  H     -160.986      51.708     -17.781
  H     -156.306      53.211     -18.646
  H     -156.492      51.616     -19.334
  H     -156.467      51.821     -17.599

 6  7  8  9  10  11  12  13  14  15  16  26  30  31  32  33  35 0
 6-311+G(2d,p)
 ****
 37  38 0
 6-311+G(2d,p)
 ****
 1  2  3  4  5  17  18  19  20  21  22  23  24  25 0
 3-21G
 ****
 27  28  29  34  36  39  40  41  42  43  44  45  46 0
 3-21G
 ****


