%nproc=1
%NoSave
%Mem=1900MB
#P OB98/GEN NMR

erre ene a

0 1
  C       57.649    -834.814    1082.366
  O       57.796    -833.600    1083.053
  P       58.713    -832.417    1082.425
  C       58.756    -831.361    1084.785
  O       59.520    -831.728    1083.622
  C       59.609    -831.456    1086.048
  O       59.850    -832.862    1086.390
  C       60.989    -830.831    1085.901
  O       60.928    -829.424    1085.912
  C       61.693    -831.446    1087.120
  O       61.370    -830.755    1088.334
  C       61.099    -832.872    1087.142
  N       62.007    -833.877    1086.614
  C       62.961    -834.365    1087.504
  O       63.053    -833.894    1088.644
  N       63.812    -835.376    1087.094
  C       63.766    -835.779    1085.846
  N       64.571    -836.827    1085.479
  C       62.893    -835.151    1084.824
  C       62.023    -834.237    1085.270
  O       58.009    -831.459    1081.510
  O       59.872    -833.214    1081.631
  H       59.941    -832.834    1080.731
  H       61.583    -829.801    1088.183
  H       62.963    -835.465    1083.788
  H       61.346    -833.746    1084.625
  H       60.827    -833.158    1088.185
  H       62.785    -831.431    1087.010
  H       61.474    -831.182    1084.993
  H       59.047    -830.996    1086.877
  H       65.168    -837.213    1086.197
  H       57.903    -832.030    1084.862
  H       64.398    -837.391    1084.655
  H       58.362    -830.344    1084.663
  P       62.065    -828.656    1085.068
  C       61.480    -826.423    1086.227
  O       62.484    -827.359    1085.900
  O       61.262    -828.057    1083.815
  O       63.207    -829.530    1084.620
  H       61.788    -828.108    1083.004
  H       61.844    -825.807    1087.077
  H       60.569    -826.937    1086.559
  H       61.258    -825.768    1085.390
  H       57.014    -835.467    1082.928
  H       58.608    -835.271    1082.239
  H       57.212    -834.630    1081.407

 3  4  5  6  7  8  9  10  11  12  13  24  27  28  29  30  32 0
 6-311+G(2d,p)
 ****
 34  35 0
 6-311+G(2d,p)
 ****
 1  2  14  15  16  17  18  19  20  21  22  23  25  26 0
 3-21G
 ****
 31  33  36  37  38  39  40  41  42  43  44  45  46 0
 3-21G
 ****


