%nproc=1
%NoSave
%Mem=1900MB
#P OB98/GEN NMR

erre ene a

0 1
  C      396.966     591.541    -570.111
  O      395.899     592.450    -569.933
  H      397.869     591.978    -569.670
  H      397.143     591.371    -571.171
  H      396.751     590.595    -569.599
  P      394.423     592.023    -570.402
  C      393.385     592.346    -568.069
  O      393.393     592.774    -569.422
  C      393.148     593.525    -567.122
  O      394.340     594.349    -567.095
  C      391.975     594.417    -567.549
  O      391.289     594.861    -566.370
  C      392.646     595.599    -568.229
  O      391.862     596.793    -568.165
  C      393.957     595.701    -567.445
  N      396.186     600.132    -568.427
  C      395.183     599.813    -567.507
  N      394.702     600.834    -566.760
  N      394.719     598.604    -567.349
  C      395.305     597.679    -568.153
  C      396.297     597.874    -569.090
  C      396.799     599.219    -569.283
  O      397.658     599.579    -570.088
  N      396.607     596.703    -569.731
  C      395.815     595.797    -569.164
  N      395.006     596.353    -568.223
  O      394.199     590.542    -570.519
  O      394.220     592.772    -571.795
  H      392.441     597.528    -568.476
  H      394.376     592.156    -572.543
  H      396.506     601.081    -568.510
  H      395.792     594.742    -569.427
  H      393.850     596.274    -566.511
  H      392.842     595.362    -569.277
  H      395.034     601.781    -566.831
  H      391.267     593.912    -568.223
  H      393.994     600.615    -566.076
  H      392.991     593.136    -566.114
  H      394.362     591.887    -567.844
  H      392.603     591.586    -567.923
  P      389.865     595.584    -566.544
  C      388.639     593.879    -565.047
  O      388.982     595.245    -565.250
  O      389.179     595.384    -567.854
  O      390.231     597.138    -566.303
  H      389.619     597.688    -566.822
  H      388.053     593.787    -564.156
  H      389.532     593.298    -564.948
  H      388.074     593.525    -565.884

 6  7  8  9  10  11  12  13  14  15  26  29  33  34 0
 6-311+G(2d,p)
 ****
 36  38  39  40  41 0
 6-311+G(2d,p)
 ****
 1  2  3  4  5  16  17  18  19  20  21  22  23  24  25 0
 3-21G
 ****
 27  28  30  31  32  35  37  42  43  44  45  46  47 0
 3-21G
 ****
 48  49 0
 3-21G
 ****


