%nproc=1
%NoSave
%Mem=1900MB
#P OB98/GEN NMR

erre ene a

0 1
  C       10.151    -211.741      84.296
  O        9.989    -211.341      85.663
  P       10.603    -209.932      86.112
  C        9.741    -207.489      86.347
  O        9.417    -208.852      86.120
  C        8.494    -206.613      86.193
  O        8.053    -206.548      84.817
  C        7.296    -207.111      86.989
  O        7.354    -206.692      88.345
  C        6.155    -206.401      86.277
  O        6.066    -205.038      86.734
  C        6.606    -206.449      84.813
  N        2.371    -208.370      82.825
  C        2.580    -207.181      83.494
  N        1.502    -206.382      83.653
  N        3.740    -206.808      83.968
  C        4.729    -207.697      83.721
  C        4.648    -208.907      83.071
  C        3.356    -209.316      82.565
  O        3.109    -210.363      81.976
  N        5.866    -209.532      83.024
  C        6.689    -208.695      83.625
  N        6.044    -207.573      84.083
  O       11.468    -209.497      84.835
  O       11.437    -209.991      87.349
  H        5.937    -205.074      87.702
  H       12.204    -208.923      85.114
  H        1.455    -208.610      82.486
  H        7.752    -208.854      83.754
  H        6.339    -205.540      84.263
  H        5.186    -206.866      86.480
  H        0.591    -206.584      83.269
  H        7.181    -208.199      86.897
  H        1.642    -205.492      84.112
  H        8.748    -205.598      86.523
  H       10.514    -207.159      85.647
  H       10.180    -207.388      87.343
  P        7.890    -207.741      89.434
  C       10.238    -208.701      89.986
  O        9.414    -208.037      89.049
  O        7.121    -209.087      89.035
  O        7.635    -207.357      90.850
  H        6.957    -209.626      89.831
  H       11.182    -208.960      89.501
  H        9.762    -209.619      90.342
  H       10.449    -208.041      90.833
  H        9.693    -212.696      84.147
  H       11.194    -211.806      84.065
  H        9.688    -211.019      83.656

 3  4  5  6  7  8  9  10  11  12  23  26  30  31 0
 6-311+G(2d,p)
 ****
 33  35  36  37  38 0
 6-311+G(2d,p)
 ****
 1  2  13  14  15  16  17  18  19  20  21  22  24  25 0
 3-21G
 ****
 27  28  29  32  34  39  40  41  42  43  44  45  46  47  48  49 0
 3-21G
 ****


