%nproc=1
%NoSave
%Mem=1900MB
#P OB98/GEN NMR

erre ene a

0 1
  C       69.680    -279.311      20.046
  O       69.751    -280.717      19.808
  P       70.088    -281.733      21.006
  C       67.680    -282.545      21.311
  O       69.014    -282.930      20.997
  C       66.720    -283.734      21.444
  O       66.418    -284.307      20.148
  C       67.223    -284.873      22.336
  O       66.062    -285.424      22.962
  C       67.804    -285.842      21.321
  O       67.955    -287.157      21.839
  C       66.800    -285.696      20.171
  N       67.353    -286.128      18.890
  C       67.206    -287.475      18.560
  O       66.681    -288.256      19.357
  N       67.700    -287.921      17.356
  C       68.367    -287.107      16.599
  N       68.852    -287.611      15.431
  C       68.625    -285.697      16.949
  C       68.083    -285.278      18.092
  O       70.281    -281.085      22.338
  O       71.441    -282.453      20.530
  H       68.323    -287.728      21.130
  H       71.967    -282.699      21.316
  H       69.209    -285.063      16.297
  H       68.208    -284.258      18.434
  H       65.895    -286.284      20.371
  H       68.796    -285.496      21.002
  H       67.955    -284.551      23.079
  H       65.773    -283.344      21.841
  H       68.680    -288.590      15.243
  H       67.316    -281.878      20.522
  H       69.479    -287.102      14.826
  H       67.687    -281.968      22.241
  P       65.978    -285.649      24.542
  C       63.441    -285.976      24.579
  O       64.701    -286.577      24.815
  O       66.023    -284.398      25.359
  O       67.214    -286.613      24.891
  H       67.394    -286.569      25.846
  H       62.670    -286.750      24.588
  H       63.426    -285.471      23.608
  H       63.224    -285.252      25.368
  H       69.446    -278.806      19.132
  H       70.623    -278.964      20.414
  H       68.918    -279.110      20.770

 3  4  5  6  7  8  9  10  11  12  13  23  27  28  29  30  32 0
 6-311+G(2d,p)
 ****
 34  35 0
 6-311+G(2d,p)
 ****
 1  2  14  15  16  17  18  19  20  21  22  24  25  26 0
 3-21G
 ****
 31  33  36  37  38  39  40  41  42  43  44  45  46 0
 3-21G
 ****


