%nproc=1
%NoSave
%Mem=1900MB
#P OB98/GEN NMR

erre ene a

0 1
  C      -33.227     -68.879     245.911
  O      -33.455     -70.209     246.360
  P      -34.249     -71.255     245.435
  C      -33.784     -72.331     243.146
  O      -33.554     -71.207     243.990
  C      -34.150     -71.883     241.734
  O      -35.430     -71.205     241.775
  C      -33.140     -70.915     241.122
  O      -33.036     -71.176     239.718
  C      -33.776     -69.544     241.301
  O      -33.298     -68.617     240.310
  C      -35.263     -69.888     241.211
  N      -37.578     -65.302     241.159
  C      -36.837     -65.943     240.231
  N      -36.236     -67.150     240.320
  C      -36.499     -67.728     241.506
  C      -37.239     -67.195     242.549
  C      -37.795     -65.917     242.350
  N      -38.557     -65.269     243.292
  N      -37.267     -68.065     243.625
  C      -36.575     -69.111     243.222
  N      -36.098     -68.957     241.943
  O      -35.731     -71.087     245.418
  O      -33.824     -72.689     245.997
  H      -33.769     -67.772     240.457
  H      -34.583     -73.301     245.983
  H      -36.712     -65.424     239.284
  H      -36.381     -69.992     243.818
  H      -35.610     -69.917     240.170
  H      -33.512     -69.144     242.290
  H      -32.151     -70.978     241.594
  H      -34.268     -72.770     241.104
  H      -34.613     -72.912     243.567
  H      -39.014     -64.410     243.015
  H      -38.863     -65.796     244.105
  H      -32.890     -72.963     243.131
  P      -31.827     -70.433     238.951
  C      -29.288     -71.015     238.900
  O      -30.497     -71.022     239.624
  O      -31.994     -68.949     238.948
  O      -31.907     -71.125     237.509
  H      -32.325     -72.010     237.554
  H      -28.512     -71.491     239.506
  H      -28.981     -69.987     238.682
  H      -29.398     -71.574     237.963
  H      -32.687     -68.338     246.659
  H      -34.165     -68.398     245.731
  H      -32.658     -68.901     245.005

 3  4  5  6  7  8  9  10  11  12  22  25  29  30  31  32 0
 6-311+G(2d,p)
 ****
 33  36  37 0
 6-311+G(2d,p)
 ****
 1  2  13  14  15  16  17  18  19  20  21  23  24  26 0
 3-21G
 ****
 27  28  34  35  38  39  40  41  42  43  44  45  46  47  48 0
 3-21G
 ****


