%nproc=1
%NoSave
%Mem=1900MB
#P OB98/GEN NMR

erre ene a

0 1
  C       86.270     125.845     134.053
  O       86.385     125.344     135.370
  H       86.017     126.908     134.103
  H       85.472     125.317     133.521
  H       87.216     125.730     133.516
  P       86.918     123.841     135.529
  C       85.106     122.128     136.354
  O       85.668     122.863     135.274
  C       84.158     123.021     137.154
  O       83.284     123.767     136.282
  C       83.203     122.255     138.054
  O       83.845     121.680     139.170
  C       82.216     123.358     138.411
  O       82.744     124.215     139.434
  C       82.108     124.117     137.064
  N       80.876     123.814     136.349
  C       79.743     124.532     136.758
  O       79.828     125.367     137.659
  N       78.540     124.262     136.152
  C       78.475     123.377     135.206
  N       77.254     123.150     134.653
  C       79.650     122.617     134.728
  C       80.802     122.879     135.343
  O       87.148     123.717     137.106
  O       88.113     123.498     134.700
  H       83.030     123.629     140.161
  H       86.369     123.958     137.635
  H       79.550     121.894     133.932
  H       81.710     122.366     135.053
  H       82.149     125.200     137.227
  H       81.272     122.959     138.786
  H       82.662     121.495     137.474
  H       84.765     123.736     137.725
  H       76.468     123.675     135.022
  H       85.890     121.722     137.001
  H       77.075     122.463     133.936
  H       84.557     121.282     135.929
  P       83.278     120.338     139.838
  C       81.917     120.938     141.938
  O       81.882     120.732     140.527
  O       84.232     119.620     140.732
  O       82.797     119.476     138.575
  H       82.110     119.899     138.029
  H       80.938     121.194     142.285
  H       82.595     121.734     142.166
  H       82.244     120.041     142.421

 6  7  8  9  10  11  12  13  14  15  16  26  30  31  32  33  35 0
 6-311+G(2d,p)
 ****
 37  38 0
 6-311+G(2d,p)
 ****
 1  2  3  4  5  17  18  19  20  21  22  23  24  25 0
 3-21G
 ****
 27  28  29  34  36  39  40  41  42  43  44  45  46 0
 3-21G
 ****


