%nproc=1
%NoSave
%Mem=1900MB
#P OB98/GEN NMR

erre ene a

0 1
  C     -211.931      27.525      83.671
  O     -210.801      28.287      83.300
  H     -212.112      27.662      84.741
  H     -211.749      26.464      83.478
  H     -212.813      27.859      83.118
  P     -210.388      28.257      81.750
  C     -208.738      26.778      80.390
  O     -209.590      26.883      81.524
  C     -207.732      25.651      80.605
  O     -206.839      26.002      81.687
  C     -208.357      24.320      81.005
  O     -208.892      23.629      79.890
  C     -207.168      23.614      81.644
  O     -206.334      22.991      80.658
  C     -206.413      24.771      82.310
  N     -205.289      22.592      86.778
  C     -204.846      22.360      85.523
  N     -205.183      23.002      84.384
  C     -206.068      23.980      84.638
  C     -206.614      24.328      85.861
  C     -206.186      23.586      86.974
  N     -206.663      23.798      88.246
  N     -207.523      25.356      85.711
  C     -207.518      25.630      84.423
  N     -206.651      24.828      83.738
  O     -209.246      29.378      81.663
  O     -211.500      28.515      80.790
  H     -206.020      23.703      80.068
  H     -209.641      30.225      81.384
  H     -204.129      21.549      85.420
  H     -208.127      26.387      83.942
  H     -205.328      24.695      82.165
  H     -207.492      22.835      82.334
  H     -209.127      24.478      81.770
  H     -207.132      25.541      79.692
  H     -208.199      27.722      80.254
  H     -209.350      26.585      79.504
  H     -206.329      23.211      88.993
  H     -207.411      24.464      88.384
  P     -209.974      22.478      80.152
  C     -209.953      20.066      81.123
  O     -209.210      21.238      80.827
  O     -210.318      21.956      78.680
  O     -211.194      22.924      80.886
  H     -211.158      22.344      78.370
  H     -209.307      19.337      81.566
  H     -210.371      19.671      80.221
  H     -210.741      20.306      81.806

 6  7  8  9  10  11  12  13  14  15  25  28  32  33  34  35 0
 6-311+G(2d,p)
 ****
 36  37  40 0
 6-311+G(2d,p)
 ****
 1  2  3  4  5  16  17  18  19  20  21  22  23  24 0
 3-21G
 ****
 26  27  29  30  31  38  39 41  42  43  44  45  46  47  48 0
 3-21G
 ****


