%nproc=1
%NoSave
%Mem=1900MB
#P OB98/GEN NMR

erre ene a

0 1
  C       40.827     129.966      63.841
  O       41.580     130.343      62.707
  H       41.489     129.452      64.543
  H       40.026     129.281      63.553
  H       40.405     130.844      64.337
  P       40.880     131.234      61.574
  C       40.855     131.175      58.998
  O       41.021     130.427      60.196
  C       41.597     130.493      57.852
  O       43.019     130.494      58.105
  C       41.212     129.032      57.651
  O       39.953     128.925      57.019
  C       42.395     128.544      56.829
  O       42.259     128.926      55.452
  C       43.568     129.307      57.490
  N       44.295     128.494      58.466
  C       45.400     127.800      57.984
  O       45.764     127.843      56.812
  N       46.051     127.010      58.895
  C       45.655     126.785      60.181
  O       46.134     125.906      60.891
  C       44.529     127.602      60.655
  C       43.900     128.396      59.785
  O       41.306     132.662      61.517
  O       39.317     131.102      61.906
  H       39.019     131.905      62.372
  H       43.153     128.875      55.061
  H       46.824     126.464      58.544
  H       44.224     127.500      61.689
  H       43.048     128.984      60.105
  H       44.282     129.645      56.728
  H       42.497     127.458      56.851
  H       41.211     128.508      58.614
  H       41.417     131.071      56.937
  H       41.268     132.177      59.154
  H       39.787     131.260      58.774
  P       39.108     127.568      57.081
  C       39.246     125.205      56.099
  O       39.931     126.434      56.303
  O       37.680     127.692      56.665
  O       39.218     127.106      58.611
  H       38.319     126.955      58.965
  H       39.883     124.524      55.574
  H       38.361     125.381      55.524
  H       38.978     124.785      57.046

 6  7  8  9  10  11  12  13  14  15  16  27  31  32  33  34  35 0
 6-311+G(2d,p)
 ****
 36  37 0
 6-311+G(2d,p)
 ****
 1  2  3  4  5  17  18  19  20  21  22  23  24  25 0
 3-21G
 ****
 26  28  29  30  38  39  40  41  42  43  44  45 0
 3-21G
 ****


