%nproc=1
%NoSave
%Mem=1900MB
#P OB98/GEN NMR

erre ene a

0 1
  C      189.571     403.635     -22.467
  O      190.215     404.480     -23.403
  H      189.066     404.245     -21.714
  H      188.821     403.035     -22.992
  H      190.289     402.967     -21.988
  P      191.547     405.230     -22.920
  C      193.154     403.215     -22.601
  O      192.781     404.322     -23.408
  C      194.113     402.295     -23.357
  O      193.394     401.696     -24.471
  C      195.352     403.009     -23.926
  O      196.479     402.139     -23.785
  C      195.022     403.154     -25.403
  O      196.185     403.248     -26.219
  C      194.196     401.894     -25.650
  N      194.209     401.493     -30.722
  C      195.058     401.035     -29.778
  N      194.953     401.139     -28.434
  C      193.799     401.738     -28.095
  C      192.828     402.253     -28.946
  C      193.080     402.127     -30.323
  N      192.250     402.651     -31.292
  N      191.813     402.840     -28.213
  C      192.178     402.707     -26.955
  N      193.371     402.048     -26.832
  O      191.516     404.999     -21.334
  O      191.636     406.676     -23.272
  H      195.916     403.218     -27.157
  H      191.002     405.711     -20.910
  H      195.944     400.527     -30.147
  H      191.634     403.090     -26.097
  H      194.822     401.001     -25.799
  H      194.419     404.056     -25.556
  H      195.569     403.972     -23.451
  H      194.411     401.477     -22.692
  H      192.253     402.647     -22.336
  H      192.568     402.609     -32.247
  H      191.469     403.219     -31.009
  H      193.621     403.581     -21.680
  P      197.868     402.797     -23.327
  C      197.959     402.402     -20.754
  O      198.411     402.005     -22.047
  O      197.424     404.211     -22.729
  O      198.859     402.954     -24.439
  H      198.111     404.879     -22.891
  H      198.411     401.779     -20.011
  H      196.895     402.304     -20.702
  H      198.232     403.422     -20.578

 6  7  8  9  10  11  12  13  14  15  25  28  32  33  34  35 0
 6-311+G(2d,p)
 ****
 36  39  40 0
 6-311+G(2d,p)
 ****
 1  2  3  4  5  16  17  18  19  20  21  22  23  24 0
 3-21G
 ****
 26  27  29  30  31  37  38  41  42  43  44  45  46  47 0
 3-21G
 ****
 48 0
 3-21G
 ****


