%nproc=1
%NoSave
%Mem=1900MB
#P OB98/GEN NMR

erre ene a

0 1
  C     -174.275     302.771     -92.337
  O     -174.525     304.084     -91.869
  H     -174.796     302.042     -91.709
  H     -174.647     302.682     -93.362
  H     -173.198     302.566     -92.331
  P     -174.080     304.411     -90.362
  C     -171.574     304.835     -90.918
  O     -172.530     303.999     -90.279
  C     -170.708     305.512     -89.856
  O     -170.244     304.535     -88.895
  C     -169.451     306.171     -90.416
  O     -169.707     307.459     -90.952
  C     -168.594     306.253     -89.166
  O     -169.050     307.338     -88.333
  C     -168.897     304.905     -88.491
  N     -165.068     301.886     -86.912
  C     -165.816     302.804     -86.264
  N     -166.832     303.555     -86.751
  C     -167.056     303.266     -88.042
  C     -166.379     302.345     -88.832
  C     -165.335     301.637     -88.217
  N     -164.549     300.719     -88.879
  N     -166.886     302.345     -90.121
  C     -167.857     303.236     -90.100
  N     -167.982     303.845     -88.877
  O     -174.801     303.273     -89.496
  O     -174.381     305.792     -89.877
  H     -168.501     307.327     -87.524
  H     -174.784     303.505     -88.547
  H     -165.564     302.970     -85.217
  H     -168.494     303.484     -90.943
  H     -168.881     304.965     -87.394
  H     -167.540     306.439     -89.386
  H     -168.951     305.527     -91.148
  H     -171.330     306.243     -89.318
  H     -172.099     305.596     -91.505
  H     -163.733     300.373     -88.398
  H     -164.646     300.633     -89.884
  H     -170.949     304.232     -91.586
  P     -168.733     307.982     -92.119
  C     -170.311     306.845     -93.852
  O     -168.975     307.012     -93.380
  O     -167.284     307.553     -91.595
  O     -168.825     309.445     -92.396
  H     -166.604     308.184     -91.888
  H     -170.313     306.177     -94.688
  H     -170.704     307.794     -94.152
  H     -170.918     306.439     -93.070

 6  7  8  9  10  11  12  13  14  15  25  28  32  33  34  35 0
 6-311+G(2d,p)
 ****
 36  39  40 0
 6-311+G(2d,p)
 ****
 1  2  3  4  5  16  17  18  19  20  21  22  23  24 0
 3-21G
 ****
 26  27  29  30  31  37  38  41  42  43  44  45  46  47 0
 3-21G
 ****
 48 0
 3-21G
 ****


