%nproc=1
%NoSave
%Mem=1900MB
#P OB98/GEN NMR

erre ene a

0 1
  C     -207.632     345.190     -71.487
  O     -207.526     346.236     -70.539
  P     -208.851     347.076     -70.206
  C     -210.491     348.591     -71.552
  O     -209.325     347.777     -71.568
  C     -210.513     349.471     -72.808
  O     -210.526     348.655     -73.998
  C     -211.751     350.356     -72.907
  O     -211.635     351.501     -72.077
  C     -211.773     350.689     -74.390
  O     -210.893     351.787     -74.691
  C     -211.243     349.383     -75.018
  N     -212.306     348.577     -75.617
  C     -212.617     348.865     -76.938
  O     -212.062     349.758     -77.576
  N     -213.621     348.119     -77.494
  C     -214.365     347.172     -76.850
  O     -215.294     346.578     -77.384
  C     -214.008     346.929     -75.441
  C     -213.017     347.633     -74.896
  O     -208.320     348.292     -69.314
  O     -209.919     346.298     -69.510
  H     -209.994     351.498     -74.433
  H     -208.981     348.520     -68.633
  H     -213.846     348.295     -78.457
  H     -214.578     346.182     -74.903
  H     -212.749     347.478     -73.859
  H     -210.511     349.610     -75.797
  H     -212.771     350.976     -74.733
  H     -212.648     349.776     -72.655
  H     -209.602     350.083     -72.821
  H     -210.480     349.222     -70.664
  H     -211.374     347.950     -71.516
  P     -213.003     352.130     -71.512
  C     -215.232     352.697     -72.757
  O     -213.832     352.558     -72.822
  O     -212.466     353.503     -70.885
  O     -213.702     351.234     -70.544
  H     -211.708     353.860     -71.387
  H     -215.551     353.097     -71.788
  H     -215.700     351.725     -72.917
  H     -215.556     353.382     -73.540
  H     -206.678     344.721     -71.608
  H     -207.954     345.590     -72.425
  H     -208.344     344.468     -71.144

 3  4  5  6  7  8  9  10  11  12  13  23  28  29  30  31  32 0
 6-311+G(2d,p)
 ****
 33  34 0
 6-311+G(2d,p)
 ****
 1  2  14  15  16  17  18  19  20  21  22  24  25  26 0
 3-21G
 ****
 27  35  36  37  38  39  40  41  42  43  44  45 0
 3-21G
 ****


