%nproc=1
%NoSave
%Mem=1900MB
#P OB98/GEN NMR

erre ene a

0 1
  C      -49.361    -577.228    -732.697
  O      -49.900    -578.177    -731.806
  H      -49.789    -577.394    -733.690
  H      -48.273    -577.345    -732.758
  H      -49.610    -576.214    -732.370
  P      -49.378    -578.117    -730.284
  C      -51.190    -579.454    -728.992
  O      -50.689    -578.175    -729.363
  C      -52.691    -579.542    -729.279
  O      -52.983    -579.125    -730.642
  C      -53.282    -580.932    -729.106
  O      -53.580    -581.202    -727.748
  C      -54.539    -580.841    -729.972
  O      -55.609    -580.174    -729.270
  C      -54.044    -579.978    -731.156
  N      -54.803    -581.064    -736.026
  C      -55.468    -580.175    -735.201
  N      -56.523    -579.529    -735.729
  N      -55.135    -579.965    -733.955
  C      -54.079    -580.708    -733.541
  C      -53.333    -581.603    -734.276
  C      -53.701    -581.818    -735.662
  O      -53.110    -582.531    -736.466
  N      -52.327    -582.165    -733.518
  C      -52.490    -581.624    -732.323
  N      -53.550    -580.757    -732.282
  O      -48.879    -576.601    -730.125
  O      -48.297    -579.088    -729.938
  H      -55.312    -579.299    -728.981
  H      -48.149    -576.576    -729.483
  H      -55.097    -581.170    -736.984
  H      -51.874    -581.838    -731.454
  H      -54.838    -579.323    -731.538
  H      -54.902    -581.822    -730.262
  H      -57.013    -579.885    -736.538
  H      -52.606    -581.700    -729.530
  H      -57.031    -578.888    -735.124
  H      -53.194    -578.829    -728.607
  H      -51.012    -579.619    -727.930
  H      -50.652    -580.221    -729.566
  P      -53.087    -582.617    -727.146
  C      -51.560    -582.222    -725.076
  O      -51.650    -582.341    -726.492
  O      -52.735    -583.483    -728.449
  O      -54.087    -583.297    -726.262
  H      -52.696    -584.427    -728.223
  H      -50.543    -582.040    -724.797
  H      -51.898    -583.129    -724.620
  H      -52.171    -581.408    -724.747

 6  7  8  9  10  11  12  13  14  15  26  29  33  34 0
 6-311+G(2d,p)
 ****
 36  38  39  40  41 0
 6-311+G(2d,p)
 ****
 1  2  3  4  5  16  17  18  19  20  21  22  23  24  25 0
 3-21G
 ****
 27  28  30  31  32  35  37  42  43  44  45  46  47 0
 3-21G
 ****
 48  49 0
 3-21G
 ****


