%nproc=1
%NoSave
%Mem=1900MB
#P OB98/GEN NMR

erre ene a

0 1
  C      258.063     -40.754    -593.455
  O      257.730     -39.516    -592.868
  P      258.760     -38.646    -592.010
  C      258.261     -39.002    -589.485
  O      259.026     -39.404    -590.622
  C      256.787     -39.431    -589.572
  O      256.715     -40.851    -589.833
  C      256.096     -39.206    -588.225
  O      255.582     -37.934    -587.890
  C      255.089     -40.348    -588.100
  O      253.769     -39.962    -588.471
  C      255.635     -41.404    -589.069
  N      254.646     -44.998    -585.633
  C      253.776     -44.092    -586.218
  N      252.541     -44.022    -585.679
  N      254.108     -43.315    -587.223
  C      255.410     -43.449    -587.589
  C      256.352     -44.308    -587.094
  C      255.958     -45.182    -586.018
  O      256.715     -45.942    -585.409
  N      257.585     -44.100    -587.651
  C      257.399     -43.077    -588.468
  N      256.102     -42.617    -588.424
  O      258.536     -37.168    -591.992
  O      260.141     -38.914    -592.812
  H      253.797     -39.578    -589.364
  H      260.666     -38.096    -592.758
  H      254.350     -45.510    -584.809
  H      258.171     -42.606    -589.062
  H      254.860     -41.705    -589.789
  H      255.027     -40.700    -587.062
  H      252.299     -44.491    -584.820
  H      256.840     -39.403    -587.446
  H      251.934     -43.262    -585.973
  H      256.287     -38.948    -590.415
  H      258.343     -37.916    -589.401
  H      258.702     -39.428    -588.576
  P      255.409     -37.333    -586.421
  C      253.093     -37.408    -585.334
  O      254.251     -38.150    -585.673
  O      254.741     -35.895    -586.651
  O      256.674     -37.193    -585.641
  H      254.913     -35.320    -585.879
  H      252.526     -37.967    -584.580
  H      252.474     -37.271    -586.225
  H      253.363     -36.430    -584.917
  H      257.213     -41.142    -593.976
  H      258.359     -41.443    -592.691
  H      258.870     -40.617    -594.143

 3  4  5  6  7  8  9  10  11  12  23  26  30  31 0
 6-311+G(2d,p)
 ****
 33  35  36  37  38 0
 6-311+G(2d,p)
 ****
 1  2  13  14  15  16  17  18  19  20  21  22  24  25 0
 3-21G
 ****
 27  28  29  32  34  39  40  41  42  43  44  45  46  47  48  49 0
 3-21G
 ****


