%nproc=1
%NoSave
%Mem=1900MB
#P OB98/GEN NMR

erre ene a

0 1
  C       14.734     237.151    -421.748
  O       15.379     236.072    -421.091
  P       14.544     234.696    -420.951
  C       12.161     234.208    -420.041
  O       13.339     234.987    -419.934
  C       10.985     234.896    -419.330
  O       10.788     236.210    -419.875
  C        9.657     234.180    -419.461
  O        9.596     233.039    -418.610
  C        8.705     235.316    -419.067
  O        8.663     235.462    -417.651
  C        9.381     236.531    -419.725
  N        6.954     240.131    -422.460
  C        7.348     240.079    -421.174
  N        7.960     239.080    -420.504
  C        8.184     238.043    -421.315
  C        7.825     237.923    -422.660
  C        7.185     239.032    -423.233
  N        6.794     239.069    -424.565
  N        8.204     236.701    -423.163
  C        8.782     236.090    -422.153
  N        8.820     236.851    -421.018
  O       15.528     233.767    -420.099
  O       14.155     234.066    -422.256
  H        9.560     235.720    -417.353
  H       15.446     232.829    -420.366
  H        7.131     240.981    -420.581
  H        9.207     235.087    -422.193
  H        9.312     237.429    -419.102
  H        7.676     235.137    -419.414
  H        9.473     233.871    -420.499
  H       11.267     234.996    -418.261
  H       12.323     233.221    -419.584
  H        6.211     239.834    -424.854
  H        6.840     238.214    -425.090
  H       11.925     234.043    -421.113
  P        8.627     231.843    -419.057
  C        6.248     232.085    -420.024
  O        7.163     232.492    -419.013
  O        8.649     230.896    -417.757
  O        9.020     231.174    -420.350
  H        8.485     231.417    -416.943
  H        5.287     232.559    -419.848
  H        6.125     230.988    -420.000
  H        6.624     232.387    -421.006
  H       15.390     237.996    -421.774
  H       13.841     237.409    -421.218
  H       14.485     236.862    -422.748

 3  4  5  6  7  8  9  10  11  12  22  25  29  30  31  32 0
 6-311+G(2d,p)
 ****
 33  36  37 0
 6-311+G(2d,p)
 ****
 1  2  13  14  15  16  17  18  19  20  21  23  24  26 0
 3-21G
 ****
 27  28  34  35  38  39  40  41  42  43  44  45  46  47  48 0
 3-21G
 ****


