%nproc=1
%NoSave
%Mem=1900MB
#P OB98/GEN NMR

erre ene a

0 1
  C      344.944      17.256     -90.143
  O      345.588      18.495     -90.392
  P      346.313      18.681     -91.814
  C      345.362      18.831     -94.226
  O      345.238      18.260     -92.929
  C      344.788      17.904     -95.300
  O      345.771      16.889     -95.617
  C      343.492      17.198     -94.891
  O      342.657      17.115     -96.045
  C      343.954      15.803     -94.512
  O      342.902      14.849     -94.634
  C      345.128      15.605     -95.484
  N      346.063      14.585     -95.020
  C      345.759      13.258     -95.334
  O      344.704      12.986     -95.906
  N      346.629      12.271     -94.947
  C      347.657      12.570     -94.215
  N      348.492      11.557     -93.860
  C      347.946      13.944     -93.756
  C      347.129      14.894     -94.206
  O      347.363      17.472     -91.839
  O      346.970      20.005     -92.010
  H      342.565      14.884     -95.557
  H      348.164      17.719     -92.338
  H      348.797      14.133     -93.115
  H      347.279      15.932     -93.942
  H      344.762      15.311     -96.477
  H      344.310      15.796     -93.475
  H      342.963      17.718     -94.086
  H      344.626      18.495     -96.210
  H      348.265      10.622     -94.175
  H      346.421      18.991     -94.445
  H      349.317      11.696     -93.290
  H      344.860      19.802     -94.246
  P      341.071      17.197     -95.822
  C      339.554      19.001     -94.804
  O      340.855      18.450     -94.843
  O      340.824      15.966     -94.824
  O      340.183      17.108     -97.015
  H      339.871      15.866     -94.653
  H      339.516      19.747     -94.006
  H      338.814      18.224     -94.595
  H      339.328      19.493     -95.754
  H      344.507      17.271     -89.166
  H      345.661      16.464     -90.201
  H      344.178      17.099     -90.874

 3  4  5  6  7  8  9  10  11  12  13  21  23  27  28  29  30  32 0
 6-311+G(2d,p)
 ****
 34  35 0
 6-311+G(2d,p)
 ****
 1  2  14  15  16  17  18  19  20  22  24  25  26 0
 3-21G
 ****
 31  33  36  37  38  39  40  41  42  43  44  45  46 0
 3-21G
 ****


