%nproc=1
%NoSave
%Mem=1900MB
#P OB98/GEN NMR

erre ene a

0 1
  C      708.213     808.094    -896.360
  O      709.289     807.193    -896.190
  H      708.045     808.240    -897.420
  H      708.465     809.058    -895.900
  H      707.294     807.705    -895.910
  P      709.510     806.529    -894.740
  C      709.019     804.036    -895.200
  O      708.526     805.255    -894.660
  C      707.856     803.087    -895.570
  O      707.106     802.761    -894.350
  C      706.876     803.776    -896.510
  O      706.191     802.856    -897.360
  C      705.857     804.406    -895.550
  O      704.605     804.682    -896.170
  C      705.790     803.359    -894.460
  N      702.060     805.348    -891.620
  C      702.066     805.059    -892.990
  N      700.953     805.361    -893.670
  N      703.099     804.531    -893.610
  C      704.164     804.349    -892.780
  C      704.298     804.612    -891.450
  C      703.150     805.153    -890.760
  O      703.086     805.457    -889.560
  N      705.555     804.322    -890.970
  C      706.203     803.888    -892.040
  N      705.403     803.865    -893.160
  O      708.825     807.554    -893.740
  O      710.942     806.256    -894.370
  H      704.001     805.008    -895.470
  H      709.226     807.476    -892.850
  H      701.246     805.731    -891.190
  H      707.249     803.563    -892.050
  H      705.097     802.565    -894.710
  H      706.258     805.363    -895.210
  H      700.214     805.911    -893.270
  H      707.374     804.535    -897.130
  H      701.037     805.430    -894.690
  H      708.244     802.141    -895.960
  H      709.647     803.569    -894.450
  H      709.628     804.220    -896.090
  P      706.857     802.498    -898.760
  C      708.086     800.313    -897.970
  O      708.186     801.629    -898.460
  O      707.426     803.918    -899.290
  O      705.923     801.880    -899.740
  H      706.864     804.266    -900.000
  H      709.067     799.907    -897.836
  H      707.544     799.712    -898.670
  H      707.571     800.320    -897.032

 6  7  8  9  10  11  12  13  14  15  26  29  33  34 0
 6-311+G(2d,p)
 ****
 36  38  39  40  41 0
 6-311+G(2d,p)
 ****
 1  2  3  4  5  16  17  18  19  20  21  22  23  24  25 0
 3-21G
 ****
 27  28  30  31  32  35  37  42  43  44  45  46  47 0
 3-21G
 ****
 48  49 0
 3-21G
 ****


