%nproc=1
%NoSave
%Mem=1900MB
#P OB98/GEN NMR

erre ene a

0 1
  C      898.240    -288.152       7.930
  O      898.531    -287.151       8.880
  H      898.592    -289.110       8.312
  H      898.768    -287.936       6.991
  H      897.165    -288.222       7.736
  P      897.870    -285.701       8.705
  C      900.129    -284.604       8.118
  O      899.027    -284.634       9.018
  C      901.459    -284.530       8.884
  O      901.539    -285.667       9.794
  C      902.702    -284.569       7.980
  O      903.732    -283.808       8.636
  C      903.047    -286.046       8.003
  O      904.376    -286.276       7.572
  C      902.737    -286.388       9.464
  N      902.585    -287.834       9.677
  C      903.717    -288.520      10.122
  O      904.810    -287.977      10.310
  N      903.564    -289.862      10.318
  C      902.436    -290.588      10.050
  O      902.363    -291.801      10.209
  C      901.288    -289.821       9.534
  C      901.412    -288.493       9.382
  O      896.597    -285.473       9.449
  O      897.673    -285.543       7.122
  H      904.543    -287.241       7.482
  H      896.897    -284.977       6.933
  H      904.367    -290.374      10.653
  H      900.385    -290.364       9.294
  H      900.591    -287.906       9.002
  H      903.547    -286.038      10.130
  H      902.388    -286.614       7.331
  H      902.526    -284.187       6.973
  H      901.457    -283.624       9.508
  H      900.021    -283.715       7.482
  H      900.120    -285.498       7.488
  P      904.386    -282.508       7.960
  C      906.916    -283.031       7.952
  O      905.858    -282.288       8.563
  O      903.517    -281.288       8.003
  O      904.673    -282.937       6.441
  H      904.641    -282.148       5.860
  H      907.841    -282.800       8.438
  H      906.983    -282.771       6.916
  H      906.716    -284.078       8.044

 6  7  8  9  10  11  12  13  14  15  16  26  31  32  33  34  35 0
 6-311+G(2d,p)
 ****
 36  37 0
 6-311+G(2d,p)
 ****
 1  2  3  4  5  17  18  19  20  21  22  23  24  25 0
 3-21G
 ****
 27  28  29  30  38  39  40  41  42  43  44  45 0
 3-21G
 ****


