%nproc=1
%NoSave
%Mem=1900MB
#P OB98/GEN NMR

erre ene a

0 1
  C     -244.544     371.779     385.775
  O     -245.499     370.873     386.295
  H     -245.003     372.346     384.963
  H     -243.687     371.227     385.381
  H     -244.215     372.475     386.553
  P     -245.097     370.111     387.644
  C     -246.549     371.515     389.319
  O     -245.254     371.164     388.853
  C     -246.723     371.070     390.768
  O     -246.555     369.640     390.887
  C     -245.686     371.636     391.722
  O     -245.883     373.006     391.992
  C     -245.901     370.740     392.936
  O     -246.975     371.219     393.759
  C     -246.274     369.388     392.287
  N     -245.228     368.398     392.463
  C     -245.099     367.889     393.762
  O     -245.860     368.267     394.650
  N     -244.092     366.997     394.021
  C     -243.265     366.665     393.079
  N     -242.270     365.798     393.408
  C     -243.364     367.182     391.697
  C     -244.358     368.033     391.462
  O     -243.511     369.958     387.496
  O     -245.816     368.823     387.874
  H     -246.921     370.716     394.599
  H     -243.060     370.782     387.251
  H     -242.662     366.860     390.943
  H     -244.503     368.463     390.478
  H     -247.199     368.991     392.721
  H     -245.012     370.694     393.568
  H     -244.675     371.447     391.336
  H     -247.743     371.332     391.084
  H     -242.205     365.515     394.379
  H     -247.322     371.066     388.687
  H     -241.526     365.530     392.780
  H     -246.649     372.600     389.239
  P     -244.660     374.038     392.002
  C     -245.120     375.080     389.691
  O     -244.240     374.271     390.466
  O     -243.523     373.676     392.897
  O     -245.363     375.428     392.370
  H     -246.050     375.718     391.744
  H     -244.742     375.164     388.694
  H     -245.189     376.053     390.130
  H     -246.090     374.630     389.667

 6  7  8  9  10  11  12  13  14  15  16  26  30  31  32  33  35 0
 6-311+G(2d,p)
 ****
 37  38 0
 6-311+G(2d,p)
 ****
 1  2  3  4  5  17  18  19  20  21  22  23  24  25 0
 3-21G
 ****
 27  28  29  34  36  39  40  41  42  43  44  45  46 0
 3-21G
 ****


