%nproc=1
%NoSave
%Mem=1900MB
#P OB98/GEN NMR

erre ene a

0 1
  C      131.028     388.794     -62.617
  O      130.589     387.944     -61.576
  H      131.435     388.199     -63.440
  H      130.170     389.364     -62.987
  H      131.783     389.492     -62.247
  P      131.710     387.037     -60.870
  C      132.101     388.779     -58.988
  O      132.664     388.048     -60.066
  C      132.920     388.568     -57.719
  O      134.279     389.014     -57.923
  C      132.417     389.329     -56.497
  O      131.323     388.669     -55.883
  C      133.656     389.295     -55.614
  O      133.762     388.012     -54.970
  C      134.788     389.463     -56.639
  N      138.718     392.664     -55.909
  C      138.597     391.324     -55.746
  N      137.526     390.541     -55.980
  C      136.499     391.271     -56.450
  C      136.476     392.635     -56.692
  C      137.653     393.348     -56.393
  N      137.738     394.728     -56.503
  N      135.237     393.030     -57.165
  C      134.523     391.923     -57.185
  N      135.242     390.838     -56.771
  O      132.615     386.564     -62.111
  O      131.190     385.875     -60.092
  H      132.981     387.920     -54.390
  H      132.333     385.674     -62.390
  H      139.483     390.822     -55.368
  H      133.485     391.863     -57.486
  H      135.659     388.843     -56.402
  H      133.641     390.056     -54.823
  H      132.179     390.371     -56.742
  H      132.955     387.488     -57.518
  H      131.075     388.443     -58.814
  H      138.401     395.147     -55.853
  H      136.845     395.196     -56.612
  H      132.084     389.840     -59.258
  P      130.253     389.571     -55.095
  C      128.541     389.327     -57.018
  O      129.295     390.222     -56.212
  O      131.139     390.807     -54.583
  O      129.561     388.893     -53.961
  H      131.058     390.886     -53.614
  H      127.951     389.885     -57.714
  H      127.898     388.741     -56.395
  H      129.206     388.681     -57.552

 6  7  8  9  10  11  12  13  14  15  25  28  32  33  34  35 0
 6-311+G(2d,p)
 ****
 36  39  40 0
 6-311+G(2d,p)
 ****
 1  2  3  4  5  16  17  18  19  20  21  22  23  24 0
 3-21G
 ****
 26  27  29  30  31  37  38  41  42  43  44  45  46  47  48 0
 3-21G
 ****


