%nproc=1
%NoSave
%Mem=1900MB
#P OB98/GEN NMR

erre ene a

0 1
  C      -34.673      60.347     298.122
  O      -33.868      59.415     297.400
  P      -33.159      58.215     298.197
  C      -30.718      59.050     298.155
  O      -31.865      58.798     298.955
  C      -29.563      59.593     299.013
  O      -28.356      59.747     298.206
  C      -29.877      60.972     299.618
  O      -29.252      61.112     300.902
  C      -29.190      61.925     298.661
  O      -28.948      63.196     299.264
  C      -27.937      61.123     298.310
  N      -24.593      64.390     296.202
  C      -24.933      64.158     297.493
  N      -25.817      63.256     297.979
  C      -26.361      62.538     296.984
  C      -26.106      62.650     295.621
  C      -25.180      63.637     295.236
  N      -24.856      63.894     293.925
  N      -26.864      61.749     294.901
  C      -27.597      61.134     295.805
  N      -27.307      61.552     297.080
  O      -32.921      56.968     297.414
  O      -34.174      57.947     299.410
  H      -28.221      63.614     298.772
  H      -34.264      56.983     299.544
  H      -24.435      64.782     298.227
  H      -28.355      60.392     295.594
  H      -27.186      61.182     299.104
  H      -29.824      62.080     297.774
  H      -30.949      61.188     299.719
  H      -29.335      58.872     299.805
  H      -30.968      59.763     297.368
  H      -24.270      64.691     293.738
  H      -25.393      63.447     293.194
  H      -30.430      58.126     297.637
  P      -30.216      60.920     302.182
  C      -30.735      63.474     302.390
  O      -31.218      62.170     302.166
  O      -29.470      60.682     303.458
  O      -31.117      59.678     301.727
  H      -31.525      59.768     300.847
  H      -31.537      64.189     302.214
  H      -29.904      63.708     301.713
  H      -30.399      63.580     303.430
  H      -35.068      61.076     297.446
  H      -34.076      60.835     298.864
  H      -35.479      59.829     298.598

 3  4  5  6  7  8  9  10  11  12  22  25  29  30  31  32 0
 6-311+G(2d,p)
 ****
 33  36  37 0
 6-311+G(2d,p)
 ****
 1  2  13  14  15  16  17  18  19  20  21  23  24  26 0
 3-21G
 ****
 27  28  34  35  38  39  40  41  42  43  44  45  46  47  48 0
 3-21G
 ****


