%nproc=1
%NoSave
%Mem=1900MB
#P OB98/GEN NMR

erre ene a

0 1
  C        5.811      -6.651       1.831
  O        5.521      -7.835       1.113
  H        4.886      -6.192       2.189
  H        6.434      -6.907       2.691
  H        6.357      -5.947       1.196
  P        4.635      -7.670      -0.214
  C        2.379      -7.768       1.063
  O        3.254      -6.998       0.252
  C        0.932      -7.549       0.629
  O        0.087      -8.581       1.177
  C        0.321      -6.229       1.091
  O        0.719      -5.145       0.265
  C       -1.161      -6.534       0.935
  O       -1.539      -6.412      -0.449
  C       -1.232      -8.006       1.371
  N       -5.110      -7.760       4.700
  C       -5.061      -7.605       3.360
  N       -3.994      -7.706       2.539
  C       -2.891      -8.021       3.236
  C       -2.787      -8.234       4.601
  C       -3.965      -8.086       5.351
  N       -3.989      -8.181       6.734
  N       -1.483      -8.523       4.953
  C       -0.811      -8.467       3.823
  N       -1.618      -8.174       2.758
  O        4.229      -9.182      -0.560
  O        5.323      -7.006      -1.359
  H       -2.479      -6.669      -0.506
  H        4.839      -9.530      -1.235
  H       -6.004      -7.362       2.880
  H        0.255      -8.627       3.729
  H       -1.930      -8.585       0.757
  H       -1.802      -5.857       1.508
  H        0.537      -6.034       2.147
  H        0.892      -7.634      -0.465
  H        2.491      -7.466       2.109
  H       -4.718      -7.620       7.166
  H       -3.076      -8.157       7.170
  H        2.648      -8.823       0.966
  P        0.666      -3.670       0.893
  C       -1.746      -3.334       0.019
  O       -0.885      -3.340       1.150
  O        1.051      -2.740      -0.351
  O        1.577      -3.435       2.047
  H        1.821      -2.185      -0.122
  H       -2.743      -3.102       0.331
  H       -1.733      -4.298      -0.444
  H       -1.410      -2.598      -0.681

 6  7  8  9  10  11  12  13  14  15  25  28  32  33  34  35 0
 6-311+G(2d,p)
 ****
 36  39  40 0
 6-311+G(2d,p)
 ****
 1  2  3  4  5  16  17  18  19  20  21  22  23  24 0
 3-21G
 ****
 26  27  29  30  31  37  38  41  42  43  44  45  46  47  48 0
 3-21G
 ****


