%nproc=1
%NoSave
%Mem=1900MB
#P OB98/GEN NMR

erre ene a

0 1
  C      142.029     -60.074      41.240
  O      143.100     -59.610      40.450
  H      142.404     -60.293      42.243
  H      141.627     -60.994      40.807
  H      141.234     -59.328      41.318
  P      142.774     -58.798      39.112
  C      142.283     -56.517      40.217
  O      141.754     -57.613      39.481
  C      141.535     -55.219      39.914
  O      141.776     -54.827      38.546
  C      140.018     -55.366      40.070
  O      139.539     -55.146      41.386
  C      139.499     -54.297      39.112
  O      139.380     -53.023      39.766
  C      140.575     -54.243      38.023
  N      137.460     -54.342      33.970
  C      137.392     -53.543      35.096
  N      136.342     -52.696      35.158
  N      138.266     -53.593      36.067
  C      139.201     -54.556      35.910
  C      139.357     -55.420      34.849
  C      138.429     -55.309      33.744
  O      138.456     -55.981      32.718
  N      140.398     -56.293      35.057
  C      140.810     -56.011      36.277
  N      140.169     -54.914      36.801
  O      141.843     -59.807      38.282
  O      143.964     -58.389      38.299
  H      138.786     -53.131      40.534
  H      141.984     -59.670      37.327
  H      136.776     -54.239      33.243
  H      141.596     -56.537      36.807
  H      140.817     -53.208      37.751
  H      138.503     -54.555      38.744
  H      135.597     -52.678      34.482
  H      139.684     -56.341      39.705
  H      136.151     -52.231      36.047
  H      141.928     -54.418      40.551
  H      143.329     -56.423      39.923
  H      142.260     -56.732      41.288
  P      138.011     -55.426      41.759
  C      138.520     -57.678      43.010
  O      137.827     -56.994      41.989
  O      137.248     -55.162      40.379
  O      137.460     -54.597      42.872
  H      136.856     -54.269      40.368
  H      138.254     -58.714      42.990
  H      138.258     -57.261      43.960
  H      139.574     -57.578      42.855

 6  7  8  9  10  11  12  13  14  15  26  29  33  34 0
 6-311+G(2d,p)
 ****
 36  38  39  40  41 0
 6-311+G(2d,p)
 ****
 1  2  3  4  5  16  17  18  19  20  21  22  23  24  25 0
 3-21G
 ****
 27  28  30  31  32  35  37  42  43  44  45  46  47 0
 3-21G
 ****
 48  49 0
 3-21G
 ****


