%nproc=1
%NoSave
%Mem=1900MB
#P OB98/GEN NMR

erre ene a

0 1
  C     -194.788      17.022     143.088
  O     -194.064      18.007     142.377
  H     -195.051      16.215     142.400
  H     -195.708      17.454     143.490
  H     -194.184      16.609     143.901
  P     -193.375      19.174     143.235
  C     -192.849      21.064     141.527
  O     -192.366      19.936     142.241
  C     -192.438      20.968     140.057
  O     -193.181      19.881     139.436
  C     -192.721      22.238     139.244
  O     -191.668      22.408     138.285
  C     -194.010      21.901     138.518
  O     -194.219      22.660     137.333
  C     -193.804      20.407     138.248
  N     -195.057      19.710     137.958
  C     -195.792      20.146     136.858
  O     -195.422      21.012     136.066
  N     -197.009      19.536     136.683
  C     -197.557      18.582     137.490
  O     -198.660      18.090     137.292
  C     -196.739      18.171     138.638
  C     -195.547      18.748     138.818
  O     -192.394      18.370     144.212
  O     -194.313      20.068     143.974
  H     -192.855      18.133     145.038
  H     -194.939      22.228     136.830
  H     -197.554      19.840     135.892
  H     -197.145      17.422     139.309
  H     -194.927      18.482     139.670
  H     -193.102      20.260     137.418
  H     -194.866      22.063     139.180
  H     -192.816      23.146     139.850
  H     -191.374      20.700     140.006
  H     -192.426      21.976     141.958
  H     -193.942      21.104     141.615
  P     -190.973      23.854     138.197
  C     -191.262      24.228     135.618
  O     -190.390      23.959     136.707
  O     -189.687      23.630     139.117
  O     -191.879      24.960     138.624
  H     -189.319      22.733     139.051
  H     -190.698      24.261     134.709
  H     -191.745      25.170     135.772
  H     -191.999      23.455     135.552

 6  7  8  9  10  11  12  13  14  15  16  27  31  32  33  34  35 0
 6-311+G(2d,p)
 ****
 36  37 0
 6-311+G(2d,p)
 ****
 1  2  3  4  5  17  18  19  20  21  22  23  24  25 0
 3-21G
 ****
 26  28  29  30  38  39  40  41  42  43  44  45 0
 3-21G
 ****


