%nproc=1
%NoSave
%Mem=1900MB
#P OB98/GEN NMR

erre ene a

0 1
  C     -303.231      67.739     624.671
  O     -302.813      67.879     626.005
  H     -303.910      66.883     624.598
  H     -302.366      67.551     624.027
  H     -303.761      68.640     624.333
  P     -302.036      69.212     626.456
  C     -299.587      70.030     626.384
  O     -300.491      68.959     626.107
  C     -298.140      69.550     626.208
  O     -297.790      68.723     627.354
  C     -297.928      68.697     624.937
  O     -296.614      68.957     624.429
  C     -298.001      67.290     625.495
  O     -297.409      66.342     624.642
  C     -297.291      67.472     626.834
  N     -297.558      66.352     627.735
  C     -297.214      65.074     627.276
  O     -296.715      64.872     626.167
  N     -297.523      64.037     628.104
  C     -298.231      64.124     629.267
  O     -298.541      63.152     629.944
  C     -298.608      65.488     629.680
  C     -298.261      66.523     628.918
  O     -302.294      69.681     627.851
  O     -302.455      70.297     625.355
  H     -297.525      65.442     624.999
  H     -302.322      71.199     625.701
  H     -297.266      63.109     627.792
  H     -299.177      65.596     630.596
  H     -298.538      67.538     629.177
  H     -296.215      67.584     626.696
  H     -299.046      67.000     625.640
  H     -298.674      68.895     624.154
  H     -297.473      70.417     626.211
  H     -299.748      70.351     627.418
  H     -299.791      70.864     625.704
  P     -296.374      69.538     622.952
  C     -296.139      68.759     620.515
  O     -296.328      68.349     621.860
  O     -295.212      70.495     622.843
  O     -297.738      70.315     622.608
  H     -297.516      71.189     622.217
  H     -296.124      67.899     619.879
  H     -295.210      69.283     620.429
  H     -296.941      69.405     620.223

 6  7  8  9  10  11  12  13  14  15  16  26  31  32  33  34  35 0
 6-311+G(2d,p)
 ****
 36  37 0
 6-311+G(2d,p)
 ****
 1  2  3  4  5  17  18  19  20  21  22  23  24  25 0
 3-21G
 ****
 27  28  29  30  38  39  40  41  42  43  44  45 0
 3-21G
 ****


