%nproc=1
%NoSave
%Mem=1900MB
#P OB98/GEN NMR

erre ene a

0 1
  C     -140.358     -36.868      31.236
  O     -139.937     -37.901      32.110
  P     -140.779     -38.162      33.449
  C     -140.445     -37.287      35.903
  O     -140.289     -37.064      34.514
  C     -141.060     -36.051      36.573
  O     -142.406     -35.855      36.053
  C     -141.169     -36.143      38.101
  O     -140.950     -34.825      38.623
  C     -142.613     -36.567      38.310
  O     -143.095     -36.251      39.609
  C     -143.303     -35.797      37.178
  N     -144.613     -36.345      36.816
  C     -145.616     -36.320      37.782
  O     -145.461     -35.885      38.922
  N     -146.822     -36.846      37.396
  C     -147.098     -37.441      36.199
  O     -148.191     -37.913      35.913
  C     -145.986     -37.483      35.239
  C     -144.818     -36.933      35.582
  O     -140.121     -39.526      33.967
  O     -142.253     -38.213      33.232
  H     -139.167     -39.581      33.785
  H     -142.536     -36.711      40.261
  H     -147.577     -36.806      38.069
  H     -146.160     -37.958      34.279
  H     -143.982     -36.952      34.892
  H     -143.411     -34.741      37.453
  H     -142.699     -37.651      38.171
  H     -140.443     -36.837      38.533
  H     -140.468     -35.172      36.283
  H     -139.468     -37.482      36.355
  H     -141.074     -38.166      36.063
  P     -140.625     -34.676      40.193
  C     -142.037     -34.825      42.394
  O     -141.977     -34.988      40.993
  O     -140.507     -33.076      40.304
  O     -139.393     -35.380      40.652
  H     -141.244     -32.615      39.881
  H     -143.085     -34.755      42.698
  H     -141.522     -33.917      42.718
  H     -141.586     -35.694      42.882
  H     -139.698     -36.821      30.395
  H     -140.341     -35.933      31.755
  H     -141.353     -37.070      30.898

 3  4  5  6  7  8  9  10  11  12  13  24  28  29  30  31  32 0
 6-311+G(2d,p)
 ****
 33  34 0
 6-311+G(2d,p)
 ****
 1  2  14  15  16  17  18  19  20  21  22  23  25  26  27 0
 3-21G
 ****
 35  36  37  38  39  40  41  42  43  44  45 0
 3-21G
 ****


