%nproc=1
%NoSave
%Mem=1900MB
#P OB98/GEN NMR

erre ene a

0 1
  C      101.261    -428.798    -536.841
  O      102.275    -428.478    -535.912
  H      101.724    -429.268    -537.712
  H      100.743    -427.893    -537.168
  H      100.547    -429.502    -536.404
  P      101.855    -427.767    -534.535
  C      101.425    -430.072    -533.430
  O      100.871    -428.830    -533.831
  C      100.594    -430.684    -532.306
  O      100.792    -429.980    -531.061
  C       99.085    -430.642    -532.530
  O       98.622    -431.570    -533.496
  C       98.602    -430.977    -531.131
  O       98.770    -432.385    -530.885
  C       99.579    -430.136    -530.275
  N       99.030    -428.831    -529.911
  C       97.892    -428.835    -529.097
  O       97.387    -429.893    -528.724
  N       97.321    -427.631    -528.746
  C       97.832    -426.525    -529.194
  N       97.223    -425.363    -528.821
  C       99.019    -426.476    -530.068
  C       99.560    -427.649    -530.384
  O      101.321    -426.376    -534.650
  O      103.157    -427.876    -533.612
  H       98.219    -432.852    -531.539
  H      102.954    -427.442    -532.748
  H       99.385    -425.530    -530.437
  H      100.433    -427.697    -531.027
  H       99.853    -430.672    -529.357
  H       97.551    -430.746    -530.970
  H       98.755    -429.624    -532.777
  H      100.949    -431.711    -532.155
  H       96.412    -425.431    -528.221
  H      102.455    -429.896    -533.101
  H       97.506    -424.463    -529.182
  H      101.434    -430.769    -534.272
  P       97.220    -431.244    -534.210
  C       98.449    -430.666    -536.442
  O       97.554    -430.250    -535.421
  O       96.478    -430.316    -533.138
  O       96.410    -432.437    -534.596
  H       95.842    -430.839    -532.609
  H       98.555    -429.883    -537.164
  H       98.063    -431.542    -536.920
  H       99.404    -430.886    -536.012

 6  7  8  9  10  11  12  13  14  15  16  26  30  31  32  33  35 0
 6-311+G(2d,p)
 ****
 37  38 0
 6-311+G(2d,p)
 ****
 1  2  3  4  5  17  18  19  20  21  22  23  24  25 0
 3-21G
 ****
 27  28  29  34  36  39  40  41  42  43  44  45  46 0
 3-21G
 ****


