%nproc=1
%NoSave
%Mem=1900MB
#P OB98/GEN NMR

erre ene a

0 1
  C      227.539     269.898      12.924
  O      226.202     269.967      12.473
  P      225.678     271.186      11.569
  C      223.949     273.002      12.126
  O      225.059     272.253      12.598
  C      223.539     274.078      13.135
  O      223.026     273.444      14.345
  C      224.668     275.028      13.556
  O      224.061     276.303      13.778
  C      225.132     274.423      14.867
  O      225.869     275.343      15.665
  C      223.799     273.947      15.453
  N      223.987     272.943      16.495
  C      223.301     273.145      17.697
  O      222.640     274.174      17.867
  N      223.420     272.212      18.692
  C      224.239     271.216      18.541
  N      224.314     270.318      19.561
  C      225.076     271.035      17.345
  C      224.891     271.917      16.362
  O      224.783     270.803      10.444
  O      227.028     271.908      11.097
  H      225.331     276.159      15.768
  H      227.454     271.393      10.365
  H      225.785     270.223      17.284
  H      225.458     271.865      15.442
  H      223.244     274.793      15.886
  H      225.788     273.563      14.666
  H      225.475     275.105      12.818
  H      222.712     274.653      12.697
  H      223.710     270.472      20.360
  H      223.111     272.316      11.989
  H      224.856     269.469      19.510
  H      224.184     273.450      11.156
  P      224.540     277.608      12.978
  C      225.977     279.667      13.467
  O      225.346     278.524      14.011
  O      223.464     278.311      12.216
  O      225.693     277.066      11.997
  H      225.860     277.729      11.301
  H      226.241     280.350      14.280
  H      225.313     280.187      12.768
  H      226.888     279.368      12.941
  H      227.674     269.011      13.507
  H      227.757     270.756      13.525
  H      228.199     269.875      12.082

 3  4  5  6  7  8  9  10  11  12  13  23  27  28  29  30  32 0
 6-311+G(2d,p)
 ****
 34  35 0
 6-311+G(2d,p)
 ****
 1  2  14  15  16  17  18  19  20  21  22  24  25  26 0
 3-21G
 ****
 31  33  36  37  38  39  40  41  42  43  44  45  46 0
 3-21G
 ****


