%nproc=1
%NoSave
%Mem=1900MB
#P OB98/GEN NMR

erre ene a

0 1
  C       72.148      76.165    -179.180
  O       72.008      76.837    -180.415
  H       71.230      75.606    -178.976
  H       72.300      76.890    -178.376
  H       72.986      75.462    -179.208
  P       73.300      77.512    -181.084
  C       72.496      79.930    -180.679
  O       73.479      78.948    -180.387
  C       73.152      81.235    -181.140
  O       74.005      81.733    -180.062
  C       74.043      81.081    -182.394
  O       73.968      82.314    -183.122
  C       75.411      80.904    -181.758
  O       76.446      81.060    -182.693
  C       75.315      81.938    -180.633
  N       76.362      81.805    -179.627
  C       77.495      82.602    -179.773
  O       77.648      83.415    -180.681
  N       78.473      82.420    -178.829
  C       78.432      81.542    -177.785
  O       79.329      81.439    -176.955
  C       77.221      80.708    -177.700
  C       76.256      80.873    -178.610
  O       73.326      77.525    -182.576
  O       74.521      76.667    -180.479
  H       74.796      75.985    -181.122
  H       76.255      81.810    -183.294
  H       79.302      82.990    -178.920
  H       77.165      79.985    -176.897
  H       75.349      80.276    -178.581
  H       75.332      82.956    -181.039
  H       75.508      79.893    -181.347
  H       73.733      80.253    -183.037
  H       72.371      81.988    -181.301
  H       71.911      80.110    -179.770
  H       71.827      79.551    -181.462
  P       73.085      82.499    -184.453
  C       74.540      82.799    -186.562
  O       73.875      81.880    -185.707
  O       72.630      83.906    -184.677
  O       71.827      81.524    -184.270
  H       71.037      81.940    -184.665
  H       75.024      82.265    -187.352
  H       75.270      83.344    -186.001
  H       73.827      83.480    -186.977

 6  7  8  9  10  11  12  13  14  15  16  27  31  32  33  34  35 0
 6-311+G(2d,p)
 ****
 36  37 0
 6-311+G(2d,p)
 ****
 1  2  3  4  5  17  18  19  20  21  22  23  24  25 0
 3-21G
 ****
 26  28  29  30  38  39  40  41  42  43  44  45 0
 3-21G
 ****


