%nproc=1
%NoSave
%Mem=1900MB
#P OB98/GEN NMR

erre ene a

0 1
  C      175.697      98.760     -74.140
  O      175.872      99.354     -75.428
  P      177.255      99.048     -76.181
  C      178.174      96.921     -77.355
  O      177.049      97.750     -77.098
  C      177.761      95.450     -77.339
  O      177.077      95.099     -76.116
  C      176.794      95.078     -78.458
  O      177.467      94.986     -79.701
  C      176.239      93.761     -77.934
  O      177.168      92.692     -78.183
  C      176.151      94.027     -76.422
  N      172.074      92.527     -73.721
  C      173.257      91.927     -73.976
  N      174.292      92.392     -74.709
  C      174.020      93.616     -75.190
  C      172.859      94.353     -75.012
  C      171.850      93.759     -74.239
  N      170.638      94.361     -73.994
  N      172.948      95.567     -75.666
  C      174.131      95.551     -76.248
  N      174.820      94.398     -75.981
  O      178.211      98.537     -75.004
  O      177.829     100.235     -76.884
  H      177.199      92.553     -79.152
  H      178.885      99.213     -74.804
  H      173.390      90.942     -73.538
  H      174.526      96.345     -76.870
  H      176.457      93.156     -75.828
  H      175.288      93.480     -78.396
  H      175.990      95.825     -78.525
  H      178.670      94.840     -77.416
  H      178.953      97.094     -76.608
  H      169.938      93.833     -73.495
  H      170.426      95.240     -74.445
  H      178.603      97.200     -78.325
  P      177.277      96.188     -80.749
  C      178.301      98.540     -80.912
  O      178.126      97.391     -80.099
  O      175.768      96.628     -80.461
  O      177.605      95.852     -82.161
  H      175.585      96.695     -79.507
  H      178.858      99.287     -80.340
  H      177.329      98.957     -81.192
  H      178.867      98.280     -81.807
  H      174.742      99.038     -73.746
  H      176.468      99.102     -73.482
  H      175.750      97.695     -74.228

 3  4  5  6  7  8  9  10  11  12  22  25  29  30  31  32 0
 6-311+G(2d,p)
 ****
 33  36  37 0
 6-311+G(2d,p)
 ****
 1  2  13  14  15  16  17  18  19  20  21  23  24  26 0
 3-21G
 ****
 27  28  34  35  38  39  40  41  42  43  44  45  46  47  48 0
 3-21G
 ****


