%nproc=1
%NoSave
%Mem=1900MB
#P OB98/GEN NMR

erre ene a

0 1
  C      317.303    -364.501     125.501
  O      317.440    -365.816     125.993
  P      317.695    -367.025     124.976
  C      320.230    -367.236     125.365
  O      318.954    -367.861     125.512
  C      321.163    -367.665     126.490
  O      320.825    -366.976     127.713
  C      321.095    -369.148     126.824
  O      321.793    -369.913     125.863
  C      321.713    -369.165     128.217
  O      323.143    -369.154     128.137
  C      321.195    -367.846     128.809
  N      319.794    -368.698     133.641
  C      321.001    -368.721     133.035
  N      321.292    -368.522     131.731
  C      320.166    -368.299     131.029
  C      318.860    -368.281     131.500
  C      318.692    -368.470     132.882
  N      317.475    -368.392     133.524
  N      317.975    -368.055     130.464
  C      318.727    -367.948     129.393
  N      320.060    -368.027     129.695
  O      317.755    -366.647     123.533
  O      316.467    -368.016     125.249
  H      323.430    -370.034     127.836
  H      315.944    -368.123     124.431
  H      321.845    -368.915     133.683
  H      318.364    -367.800     128.379
  H      321.970    -367.322     129.379
  H      321.427    -370.053     128.796
  H      320.049    -369.467     126.892
  H      322.186    -367.377     126.215
  H      320.086    -366.151     125.389
  H      317.483    -368.398     134.531
  H      316.705    -367.929     133.038
  H      320.654    -367.512     124.395
  P      321.257    -371.373     125.466
  C      320.556    -370.432     123.187
  O      321.261    -371.451     123.865
  O      319.984    -371.794     126.125
  O      322.468    -372.340     125.871
  H      322.113    -373.204     126.148
  H      319.484    -370.638     123.224
  H      320.879    -370.416     122.141
  H      320.758    -369.453     123.634
  H      317.139    -363.830     126.318
  H      316.471    -364.456     124.830
  H      318.195    -364.220     124.982

 3  4  5  6  7  8  9  10  11  12  22  25  29  30  31  32 0
 6-311+G(2d,p)
 ****
 33  36  37 0
 6-311+G(2d,p)
 ****
 1  2  13  14  15  16  17  18  19  20  21  23  24  26 0
 3-21G
 ****
 27  28  34  35  38  39  40  41  42  43  44  45  46  47  48 0
 3-21G
 ****


