%nproc=1
%NoSave
%Mem=1900MB
#P OB98/GEN NMR

erre ene a

0 1
  C       -9.283      -8.836      -7.796
  O       -8.271      -8.373      -6.899
  P       -7.818      -9.402      -5.753
  C       -9.331      -8.553      -3.829
  O       -9.056      -9.599      -4.748
  C       -9.021      -8.975      -2.389
  O       -9.972      -9.976      -1.922
  C       -7.621      -9.573      -2.209
  O       -7.163      -9.181      -0.908
  C       -7.891     -11.066      -2.209
  O       -6.810     -11.795      -1.634
  C       -9.202     -11.093      -1.425
  N       -9.274     -15.988      -0.193
  C       -8.311     -15.026       0.041
  N       -7.231     -15.412       0.751
  N       -8.401     -13.792      -0.383
  C       -9.556     -13.539      -1.046
  C      -10.590     -14.400      -1.328
  C      -10.462     -15.771      -0.880
  O      -11.286     -16.659      -1.056
  N      -11.610     -13.762      -1.996
  C      -11.149     -12.535      -2.171
  N       -9.939     -12.335      -1.568
  O       -6.762      -8.554      -4.900
  O       -7.219     -10.662      -6.282
  H       -7.034     -12.748      -1.691
  H       -5.853      -8.804      -5.147
  H       -9.146     -16.927       0.142
  H      -11.662     -11.751      -2.702
  H       -9.044     -10.951      -0.348
  H       -8.042     -11.423      -3.235
  H       -7.121     -16.333       1.150
  H       -6.898      -9.273      -2.972
  H       -6.529     -14.717       0.972
  H       -9.132      -8.095      -1.744
  H      -10.382      -8.264      -3.897
  H       -8.754      -7.667      -4.114
  P       -6.071      -8.015      -0.820
  C       -4.579      -9.273       0.879
  O       -4.681      -8.691      -0.405
  O       -6.504      -7.212       0.497
  O       -6.029      -7.109      -2.008
  H       -6.377      -6.255       0.352
  H       -3.820     -10.057       0.851
  H       -5.527      -9.711       1.203
  H       -4.272      -8.510       1.599
  H       -9.502      -8.071      -8.511
  H      -10.168      -9.072      -7.244
  H       -8.936      -9.711      -8.304

 3  4  5  6  7  8  9  10  11  12  23  26  30  31 0
 6-311+G(2d,p)
 ****
 33  35  36  37  38 0
 6-311+G(2d,p)
 ****
 1  2  13  14  15  16  17  18  19  20  21  22  24  25 0
 3-21G
 ****
 27  28  29  32  34  39  40  41  42  43  44  45  46  47  48  49 0
 3-21G
 ****


