%nproc=1
%NoSave
%Mem=1900MB
#P OB98/GEN NMR

erre ene a

0 1
  C      250.828    -198.851    -226.183
  O      250.662    -198.498    -224.806
  P      251.865    -198.835    -223.803
  C      252.712    -200.882    -222.446
  O      251.741    -200.373    -223.352
  C      252.786    -202.420    -222.510
  O      251.486    -203.007    -222.227
  C      253.225    -202.953    -223.877
  O      253.922    -204.188    -223.676
  C      251.900    -203.249    -224.558
  O      252.063    -204.146    -225.655
  C      251.104    -203.791    -223.376
  N      247.145    -206.085    -225.508
  C      248.483    -206.429    -225.513
  N      248.809    -207.576    -226.154
  N      249.420    -205.714    -224.937
  C      248.937    -204.616    -224.305
  C      247.640    -204.166    -224.236
  C      246.619    -204.953    -224.893
  O      245.420    -204.686    -224.936
  N      247.552    -202.996    -223.521
  C      248.799    -202.738    -223.171
  N      249.668    -203.712    -223.587
  O      251.466    -198.025    -222.475
  O      253.208    -198.416    -224.304
  H      251.203    -204.166    -226.140
  H      252.059    -197.257    -222.366
  H      246.471    -206.667    -225.973
  H      249.122    -201.870    -222.618
  H      251.333    -204.842    -223.164
  H      251.460    -202.316    -224.935
  H      248.133    -208.197    -226.567
  H      253.857    -202.272    -224.455
  H      249.779    -207.869    -226.133
  H      253.478    -202.763    -221.738
  H      252.475    -200.574    -221.427
  H      253.681    -200.428    -222.673
  P      255.230    -204.436    -224.565
  C      255.633    -205.149    -227.033
  O      254.713    -204.688    -226.059
  O      255.734    -205.881    -224.097
  O      256.290    -203.396    -224.421
  H      256.695    -205.974    -224.253
  H      255.467    -206.217    -227.206
  H      256.671    -204.991    -226.718
  H      255.465    -204.609    -227.962
  H      249.953    -198.569    -226.731
  H      250.976    -199.908    -226.265
  H      251.679    -198.340    -226.582

 3  4  5  6  7  8  9  10  11  12  23  26  30  31 0
 6-311+G(2d,p)
 ****
 33  35  36  37  38 0
 6-311+G(2d,p)
 ****
 1  2  13  14  15  16  17  18  19  20  21  22  24  25 0
 3-21G
 ****
 27  28  29  32  34  39  40  41  42  43  44  45  46  47  48  49 0
 3-21G
 ****


