%nproc=1
%NoSave
%Mem=1900MB
#P OB98/GEN NMR

erre ene a

0 1
  C     -270.177    2357.025     141.986
  O     -270.402    2356.574     143.284
  P     -271.929    2356.295     143.781
  C     -272.002    2353.706     143.731
  O     -272.398    2354.932     143.096
  C     -272.766    2352.487     143.192
  O     -274.172    2352.575     143.602
  C     -272.735    2352.321     141.708
  O     -272.671    2350.865     141.438
  C     -274.048    2352.878     141.263
  O     -274.416    2352.482     139.969
  C     -274.957    2352.421     142.421
  N     -276.205    2353.176     142.522
  C     -276.802    2353.240     143.786
  O     -276.314    2352.597     144.724
  N     -277.914    2354.026     143.976
  C     -278.463    2354.542     142.879
  N     -279.608    2355.348     143.049
  C     -277.953    2354.341     141.518
  C     -276.843    2353.664     141.409
  O     -272.851    2357.458     143.642
  O     -271.742    2355.879     145.321
  H     -275.371    2352.627     139.842
  H     -272.526    2356.178     145.813
  H     -278.515    2354.712     140.676
  H     -276.378    2353.453     140.448
  H     -275.192    2351.330     142.285
  H     -274.017    2354.014     141.248
  H     -271.874    2352.754     141.202
  H     -272.358    2351.585     143.712
  H     -279.953    2355.427     144.037
  H     -272.155    2353.819     144.812
  H     -280.060    2355.849     142.289
  H     -270.935    2353.584     143.610
  P     -271.243    2350.169     141.479
  C     -271.499    2348.702     143.593
  O     -270.880    2349.799     142.977
  O     -270.242    2351.337     141.127
  O     -271.062    2349.063     140.419
  H     -269.441    2350.985     140.685
  H     -270.955    2348.451     144.515
  H     -271.493    2347.814     142.911
  H     -272.517    2348.906     143.858
  H     -269.126    2357.155     141.831
  H     -270.677    2357.960     141.842
  H     -270.555    2356.307     141.288

 3  4  5  6  7  8  9  10  11  12  13  23  27  28  29  30  32 0
 6-311+G(2d,p)
 ****
 34  35 0
 6-311+G(2d,p)
 ****
 1  2  14  15  16  17  18  19  20  21  22  24  25  26 0
 3-21G
 ****
 31  33  36  37  38  39  40  41  42  43  44  45  46 0
 3-21G
 ****


