%nproc=1
%NoSave
%Mem=1900MB
#P OB98/GEN NMR

erre ene a

0 1
  C      -30.313     -71.706     -15.356
  O      -29.974     -72.429     -16.522
  P      -28.586     -73.223     -16.643
  C      -29.351     -75.237     -15.241
  O      -28.479     -74.120     -15.316
  C      -28.627     -76.474     -14.707
  O      -29.598     -77.511     -14.400
  C      -27.595     -77.076     -15.671
  O      -26.543     -77.601     -14.856
  C      -28.376     -78.200     -16.323
  O      -27.534     -79.174     -16.927
  C      -29.217     -78.693     -15.138
  N      -30.373     -79.468     -15.573
  C      -30.321     -80.847     -15.359
  O      -29.302     -81.366     -14.897
  N      -31.398     -81.615     -15.722
  C      -32.394     -81.065     -16.342
  N      -33.436     -81.875     -16.673
  C      -32.434     -79.635     -16.700
  C      -31.408     -78.900     -16.277
  O      -27.393     -72.376     -16.927
  O      -28.876     -74.316     -17.775
  H      -28.102     -79.867     -17.328
  H      -28.850     -73.899     -18.672
  H      -33.260     -79.233     -17.267
  H      -31.348     -77.842     -16.491
  H      -28.612     -79.317     -14.469
  H      -29.026     -77.791     -17.106
  H      -27.203     -76.360     -16.396
  H      -28.140     -76.198     -13.763
  H      -33.374     -82.846     -16.395
  H      -29.714     -75.452     -16.250
  H      -34.293     -81.533     -17.081
  H      -30.218     -74.995     -14.618
  P      -25.069     -77.828     -15.443
  C      -23.899     -75.560     -15.264
  O      -24.613     -76.446     -16.107
  O      -24.916     -79.028     -16.320
  O      -24.137     -77.934     -14.143
  H      -23.277     -78.321     -14.391
  H      -23.406     -74.803     -15.880
  H      -23.142     -76.095     -14.684
  H      -24.595     -75.064     -14.581
  H      -31.275     -71.254     -15.483
  H      -29.581     -70.945     -15.183
  H      -30.340     -72.372     -14.519

 3  4  5  6  7  8  9  10  11  12  13  23  27  28  29  30  32 0
 6-311+G(2d,p)
 ****
 34  35 0
 6-311+G(2d,p)
 ****
 1  2  14  15  16  17  18  19  20  21  22  24  25  26 0
 3-21G
 ****
 31  33  36  37  38  39  40  41  42  43  44  45  46 0
 3-21G
 ****


