%nproc=1
%NoSave
%Mem=1900MB
#P OB98/GEN NMR

erre ene a

0 1
  C     -602.847     649.602     480.300
  O     -603.756     650.571     480.829
  P     -603.439     651.204     482.266
  C     -603.591     653.690     481.497
  O     -604.100     652.665     482.345
  C     -604.714     654.631     481.060
  O     -605.692     653.939     480.241
  C     -605.505     655.228     482.210
  O     -604.844     656.350     482.766
  C     -606.781     655.660     481.500
  O     -606.560     656.917     480.823
  C     -606.987     654.532     480.489
  N     -611.889     653.349     481.403
  C     -611.302     654.486     480.985
  N     -609.990     654.737     480.779
  C     -609.259     653.641     481.041
  C     -609.716     652.408     481.468
  C     -611.097     652.271     481.653
  N     -611.692     651.104     482.077
  N     -608.672     651.523     481.641
  C     -607.595     652.208     481.298
  N     -607.900     653.498     480.936
  O     -601.867     651.517     482.184
  O     -603.748     650.296     483.411
  H     -605.828     656.775     480.193
  H     -601.454     651.386     483.053
  H     -611.975     655.319     480.793
  H     -606.581     651.829     481.297
  H     -607.367     654.905     479.518
  H     -607.610     655.818     482.188
  H     -605.741     654.465     482.970
  H     -604.276     655.440     480.457
  H     -603.101     653.248     480.625
  H     -612.695     651.080     482.162
  H     -611.113     650.292     482.247
  H     -602.812     654.243     482.045
  P     -604.553     656.324     484.345
  C     -602.153     657.324     484.443
  O     -603.546     657.539     484.624
  O     -603.646     655.014     484.525
  O     -605.778     656.280     485.198
  H     -603.797     654.626     485.407
  H     -601.658     658.297     484.372
  H     -601.960     656.765     483.532
  H     -601.747     656.781     485.306
  H     -603.192     649.275     479.341
  H     -602.792     648.764     480.964
  H     -601.876     650.041     480.199

 3  4  5  6  7  8  9  10  11  12  22  25  29  30  31  32 0
 6-311+G(2d,p)
 ****
 33  36  37 0
 6-311+G(2d,p)
 ****
 1  2  13  14  15  16  17  18  19  20  21  23  24  26 0
 3-21G
 ****
 27  28  34  35  38  39  40  41  42  43  44  45  46  47  48 0
 3-21G
 ****


