%nproc=1
%NoSave
%Mem=1900MB
#P OB98/GEN NMR

erre ene a

0 1
  C     -234.211    -226.846     453.771
  O     -235.486    -226.674     453.143
  P     -236.232    -227.978     452.582
  C     -238.167    -228.337     454.288
  O     -236.893    -228.759     453.814
  C     -238.014    -227.178     455.281
  O     -237.407    -226.020     454.667
  C     -239.330    -226.686     455.853
  O     -239.767    -227.503     456.930
  C     -238.935    -225.310     456.365
  O     -238.264    -225.435     457.636
  C     -237.945    -224.837     455.289
  N     -240.006    -220.250     454.287
  C     -239.524    -220.799     455.429
  N     -239.009    -222.028     455.622
  C     -239.004    -222.725     454.474
  C     -239.461    -222.305     453.233
  C     -239.984    -221.004     453.162
  N     -240.470    -220.459     452.000
  N     -239.307    -223.301     452.291
  C     -238.747    -224.300     452.948
  N     -238.554    -224.001     454.270
  O     -235.018    -228.933     452.154
  O     -237.146    -227.706     451.433
  H     -237.442    -225.942     457.476
  H     -235.268    -229.454     451.368
  H     -239.552    -220.156     456.308
  H     -238.465    -225.246     452.510
  H     -237.107    -224.273     455.715
  H     -239.796    -224.656     456.524
  H     -240.093    -226.592     455.070
  H     -237.357    -227.519     456.096
  H     -238.691    -229.171     454.761
  H     -240.801    -219.506     452.014
  H     -240.437    -221.005     451.151
  H     -238.779    -228.036     453.433
  P     -240.578    -228.835     456.559
  C     -238.912    -230.340     457.862
  O     -239.509    -230.025     456.619
  O     -240.873    -228.654     454.996
  O     -241.835    -229.036     457.346
  H     -241.708    -229.098     454.754
  H     -238.462    -231.334     457.791
  H     -239.652    -230.346     458.667
  H     -238.125    -229.614     458.088
  H     -233.840    -225.895     454.092
  H     -233.525    -227.279     453.073
  H     -234.315    -227.492     454.618

 3  4  5  6  7  8  9  10  11  12  22  25  29  30  31  32 0
 6-311+G(2d,p)
 ****
 33  36  37 0
 6-311+G(2d,p)
 ****
 1  2  13  14  15  16  17  18  19  20  21  23  24  26 0
 3-21G
 ****
 27  28  34  35  38  39  40  41  42  43  44  45  46  47  48 0
 3-21G
 ****


