%nproc=1
%NoSave
%Mem=1900MB
#P OB98/GEN NMR

erre ene a

0 1
  C      -52.843     329.756      20.438
  O      -52.167     330.474      19.423
  H      -52.473     328.728      20.446
  H      -53.918     329.744      20.237
  H      -52.646     330.209      21.415
  P      -52.551     332.023      19.265
  C      -52.777     331.690      16.707
  O      -52.122     332.383      17.760
  C      -52.177     332.080      15.358
  O      -52.259     333.504      15.161
  C      -50.703     331.725      15.195
  O      -50.544     330.357      14.853
  C      -50.311     332.640      14.050
  O      -50.737     332.068      12.799
  C      -51.129     333.915      14.348
  N      -48.800     338.468      13.885
  C      -49.280     337.611      12.962
  N      -49.846     336.397      13.153
  C      -49.900     336.100      14.463
  C      -49.450     336.878      15.519
  C      -48.889     338.123      15.192
  N      -48.410     339.008      16.137
  N      -49.668     336.241      16.724
  C      -50.285     335.124      16.403
  N      -50.415     334.972      15.044
  O      -52.044     332.928      20.335
  O      -54.146     331.932      19.151
  H      -50.442     332.667      12.087
  H      -54.407     331.153      18.627
  H      -49.197     337.938      11.928
  H      -50.673     334.399      17.112
  H      -51.528     334.363      13.430
  H      -49.232     332.785      13.984
  H      -50.127     331.998      16.087
  H      -52.780     331.609      14.571
  H      -53.848     331.905      16.711
  H      -47.871     339.794      15.809
  H      -48.363     338.694      17.097
  H      -52.638     330.619      16.885
  P      -49.759     329.356      15.826
  C      -48.041     328.818      13.985
  O      -49.014     328.292      14.875
  O      -50.579     328.750      16.911
  O      -48.548     330.226      16.408
  H      -48.388     330.007      17.344
  H      -47.617     328.022      13.409
  H      -47.269     329.302      14.546
  H      -48.503     329.526      13.329

 6  7  8  9  10  11  12  13  14  15  25  28  32  33  34  35 0
 6-311+G(2d,p)
 ****
 36  39  40 0
 6-311+G(2d,p)
 ****
 1  2  3  4  5  16  17  18  19  20  21  22  23  24 0
 3-21G
 ****
 26  27  29  30  31  37  38  41  42  43  44  45  46  47 0
 3-21G
 ****
 48 0
 3-21G
 ****


