%nproc=1
%NoSave
%Mem=1900MB
#P OB98/GEN NMR

erre ene a

0 1
  C     -837.499    -105.267    -630.290
  O     -838.631    -105.769    -629.603
  P     -838.701    -107.357    -629.349
  C     -839.497    -107.477    -626.875
  O     -838.394    -107.555    -627.775
  C     -839.116    -106.682    -625.636
  O     -838.804    -105.320    -625.994
  C     -840.208    -106.589    -624.584
  O     -840.266    -107.757    -623.777
  C     -839.736    -105.383    -623.772
  O     -838.722    -105.809    -622.831
  C     -839.115    -104.486    -624.854
  N     -841.163    -100.018    -623.605
  C     -840.296    -100.829    -622.894
  N     -839.885    -100.366    -621.683
  N     -839.859    -101.977    -623.321
  C     -840.307    -102.298    -624.556
  C     -841.179    -101.585    -625.352
  C     -841.689    -100.330    -624.853
  O     -842.513     -99.604    -625.403
  N     -841.392    -102.226    -626.547
  C     -840.634    -103.299    -626.501
  N     -839.983    -103.409    -625.286
  O     -837.362    -107.900    -630.049
  O     -839.914    -108.036    -629.880
  H     -838.662    -105.117    -622.154
  H     -837.468    -108.826    -630.309
  H     -841.458     -99.129    -623.226
  H     -840.519    -104.026    -627.298
  H     -838.162    -104.050    -624.513
  H     -840.530    -104.917    -623.195
  H     -840.076     -99.426    -621.362
  H     -841.181    -106.354    -625.035
  H     -839.216    -100.924    -621.167
  H     -838.206    -107.137    -625.209
  H     -839.781    -108.486    -626.578
  H     -840.344    -107.001    -627.395
  P     -841.610    -108.664    -623.927
  C     -840.664    -111.077    -623.886
  O     -841.120    -109.990    -624.669
  O     -842.449    -107.879    -625.046
  O     -842.365    -108.832    -622.655
  H     -843.395    -108.070    -624.945
  H     -841.232    -111.172    -622.948
  H     -839.608    -110.948    -623.645
  H     -840.792    -112.003    -624.455
  H     -837.583    -104.205    -630.388
  H     -837.445    -105.712    -631.262
  H     -836.613    -105.505    -629.739

 3  4  5  6  7  8  9  10  11  12  23  26  30  31  33  0
 6-311+G(2d,p)
 ****
 35  36  37  38 0
 6-311+G(2d,p)
 ****
 1  2  13  14  15  16  17  18  19  20  21  22  24  25  27  28  29 0
 3-21G
 ****
 32  34  39  40  41  42  43  44  45  46  47  48  49 0
 3-21G
 ****


