%nproc=1
%NoSave
%Mem=1900MB
#P OB98/GEN NMR

erre ene a

0 1
  C     -176.399     228.273    -271.069
  O     -175.401     227.555    -270.368
  H     -176.151     228.260    -272.134
  H     -176.434     229.309    -270.725
  H     -177.371     227.795    -270.928
  P     -175.556     227.481    -268.773
  C     -174.705     225.064    -268.409
  O     -175.832     225.928    -268.470
  C     -174.822     223.962    -269.461
  O     -174.836     224.535    -270.780
  C     -173.676     222.958    -269.446
  O     -173.906     221.957    -268.463
  C     -173.774     222.385    -270.852
  O     -174.812     221.383    -270.900
  C     -174.189     223.606    -271.690
  N     -172.544     225.523    -276.160
  C     -173.602     224.742    -275.852
  N     -173.944     224.224    -274.657
  C     -173.074     224.596    -273.705
  C     -171.949     225.392    -273.867
  C     -171.692     225.870    -275.163
  N     -170.609     226.665    -275.474
  N     -171.288     225.559    -272.670
  C     -172.037     224.928    -271.786
  N     -173.108     224.299    -272.370
  O     -176.522     228.450    -268.170
  O     -174.033     227.659    -268.308
  H     -174.562     220.690    -270.256
  H     -173.437     227.157    -268.893
  H     -174.261     224.496    -276.687
  H     -171.863     224.913    -270.718
  H     -174.923     223.339    -272.463
  H     -172.853     221.901    -271.172
  H     -172.702     223.445    -269.320
  H     -175.787     223.458    -269.316
  H     -174.629     224.615    -267.410
  H     -170.400     226.801    -276.451
  H     -169.912     226.811    -274.758
  H     -173.811     225.669    -268.585
  P     -173.212     222.039    -267.018
  C     -175.320     221.424    -265.677
  O     -174.387     222.452    -266.012
  O     -171.984     222.889    -266.968
  O     -172.930     220.514    -266.631
  H     -172.276     220.470    -265.903
  H     -176.054     221.814    -265.003
  H     -174.803     220.612    -265.210
  H     -175.802     221.076    -266.567

 6  7  8  9  10  11  12  13  14  15  25  28  32  33  34  35 0
 6-311+G(2d,p)
 ****
 36  39  40 0
 6-311+G(2d,p)
 ****
 1  2  3  4  5  16  17  18  19  20  21  22  23  24 0
 3-21G
 ****
 26  27  29  30  31  37  38  41  42  43  44  45  46  47 0
 3-21G
 ****
 48 0
 3-21G
 ****


