%nproc=1
%NoSave
%Mem=1900MB
#P OB98/GEN NMR

erre ene a

0 1
  C      886.900    -712.840    -131.724
  O      885.645    -712.227    -131.935
  P      884.538    -712.254    -130.763
  C      882.691    -711.402    -132.346
  O      883.093    -712.439    -131.465
  C      881.497    -711.859    -133.165
  O      881.916    -712.769    -134.214
  C      880.443    -712.619    -132.382
  O      879.642    -711.724    -131.603
  C      879.684    -713.330    -133.510
  O      878.722    -712.436    -134.092
  C      880.802    -713.660    -134.473
  N      879.797    -718.463    -135.900
  C      879.072    -717.319    -136.023
  N      879.400    -716.076    -135.577
  C      880.594    -716.096    -134.943
  C      881.413    -717.171    -134.725
  C      880.999    -718.424    -135.252
  N      881.738    -719.576    -135.202
  N      882.545    -716.799    -134.020
  C      882.395    -715.507    -133.803
  N      881.255    -715.021    -134.400
  O      884.622    -711.147    -129.767
  O      884.787    -713.690    -130.062
  H      878.125    -712.979    -134.653
  H      885.000    -713.534    -129.124
  H      878.124    -717.412    -136.524
  H      883.078    -714.877    -133.236
  H      880.491    -713.483    -135.525
  H      879.136    -714.219    -133.143
  H      880.922    -713.365    -131.743
  H      881.038    -710.986    -133.649
  H      883.534    -711.176    -133.018
  H      881.416    -720.354    -135.743
  H      882.739    -719.497    -135.016
  H      882.442    -710.502    -131.761
  P      878.734    -712.311    -130.426
  C      878.029    -709.966    -129.586
  O      877.610    -711.214    -130.130
  O      879.474    -712.798    -129.201
  O      877.915    -713.493    -131.114
  H      877.739    -714.199    -130.457
  H      878.227    -710.106    -128.532
  H      877.254    -709.238    -129.746
  H      878.953    -709.631    -130.104
  H      887.504    -712.727    -132.600
  H      886.759    -713.881    -131.521
  H      887.388    -712.377    -130.892

 3  4  5  6  7  8  9  10  11  12  22  25  29  30  31  32 0
 6-311+G(2d,p)
 ****
 33  36  37 0
 6-311+G(2d,p)
 ****
 1  2  13  14  15  16  17  18  19  20  21  23  24  26 0
 3-21G
 ****
 27  28  34  35  38  39  40  41  42  43  44  45  46  47  48 0
 3-21G
 ****


