%nproc=1
%NoSave
%Mem=1900MB
#P OB98/GEN NMR

erre ene a

0 1
  C      199.678     100.458      65.027
  O      200.518      99.364      64.716
  H      198.977     100.626      64.205
  H      199.109     100.220      65.929
  H      200.266     101.361      65.207
  P      201.657      99.603      63.613
  C      203.445     100.307      65.358
  O      202.667     100.689      64.234
  C      204.914     100.655      65.133
  O      205.453      99.757      64.119
  C      205.158     102.097      64.659
  O      206.343     102.588      65.292
  C      205.423     101.936      63.174
  O      206.209     102.993      62.637
  C      206.115     100.577      63.140
  N      208.439     100.316      58.625
  C      208.863     100.740      59.834
  N      208.192     100.724      61.004
  C      206.989     100.143      60.855
  C      206.424      99.657      59.690
  C      207.201      99.777      58.524
  N      206.753      99.412      57.276
  N      205.148      99.187      59.935
  C      204.940      99.410      61.217
  N      206.025      99.988      61.815
  O      200.872     100.425      62.482
  O      202.294      98.372      63.067
  H      205.717     103.832      62.732
  H      200.448      99.804      61.862
  H      209.867     101.156      59.865
  H      204.023      99.203      61.750
  H      207.179     100.638      63.402
  H      204.469     101.906      62.633
  H      204.322     102.775      64.863
  H      205.465     100.455      66.060
  H      203.355      99.224      65.502
  H      207.337      99.633      56.485
  H      205.795      99.112      57.169
  H      203.067     100.813      66.250
  P      206.184     103.826      66.298
  C      206.505     102.300      68.385
  O      205.700     103.268      67.720
  O      204.892     104.587      65.740
  O      207.376     104.726      66.344
  H      204.973     105.547      65.890
  H      206.047     102.033      69.314
  H      207.476     102.710      68.571
  H      206.598     101.430      67.770

 6  7  8  9  10  11  12  13  14  15  25  28  32  33  34  35 0
 6-311+G(2d,p)
 ****
 36  39  40 0
 6-311+G(2d,p)
 ****
 1  2  3  4  5  16  17  18  19  20  21  22  23  24 0
 3-21G
 ****
 26  27  29  30  31  37  38  41  42  43  44  45  46  47 0
 3-21G
 ****
 48 0
 3-21G
 ****


