%nproc=1
%NoSave
%Mem=1900MB
#P OB98/GEN NMR

erre ene a

0 1
  C      133.337    -101.482     414.977
  O      132.444    -102.185     414.132
  H      132.842    -100.569     415.328
  H      134.239    -101.204     414.424
  H      133.602    -102.099     415.839
  P      133.011    -103.528     413.463
  C      131.016    -105.177     413.495
  O      132.205    -104.742     414.134
  C      130.763    -106.656     413.785
  O      131.749    -107.480     413.122
  C      130.809    -107.026     415.261
  O      129.562    -106.766     415.887
  C      131.127    -108.513     415.184
  O      129.944    -109.284     414.894
  C      132.112    -108.570     414.007
  N      136.022    -110.964     416.134
  C      134.707    -111.362     415.985
  N      134.373    -112.559     416.509
  N      133.786    -110.636     415.397
  C      134.251    -109.434     414.972
  C      135.529    -108.931     415.054
  C      136.541    -109.767     415.662
  O      137.745    -109.507     415.748
  N      135.610    -107.678     414.494
  C      134.377    -107.417     414.100
  N      133.516    -108.454     414.373
  O      134.482    -103.666     414.092
  O      133.065    -103.529     411.971
  H      129.333    -109.226     415.645
  H      135.084    -104.010     413.406
  H      136.691    -111.578     416.566
  H      134.058    -106.507     413.610
  H      132.016    -109.499     413.437
  H      131.514    -108.889     416.134
  H      134.935    -113.014     417.213
  H      131.627    -106.507     415.773
  H      133.391    -112.814     416.470
  H      129.787    -106.913     413.355
  H      131.116    -105.032     412.416
  H      130.170    -104.583     413.862
  P      129.517    -106.704     417.488
  C      129.684    -104.212     418.194
  O      130.376    -105.437     417.963
  O      130.426    -107.952     417.915
  O      128.149    -106.812     418.074
  H      129.862    -108.678     418.238
  H      130.381    -103.462     418.504
  H      128.951    -104.356     418.960
  H      129.201    -103.900     417.292

 6  7  8  9  10  11  12  13  14  15  26  29  33  34 0
 6-311+G(2d,p)
 ****
 36  38  39  40  41 0
 6-311+G(2d,p)
 ****
 1  2  3  4  5  16  17  18  19  20  21  22  23  24  25 0
 3-21G
 ****
 27  28  30  31  32  35  37  42  43  44  45  46  47 0
 3-21G
 ****
 48  49 0
 3-21G
 ****


