%nproc=1
%NoSave
%Mem=1900MB
#P OB98/GEN NMR

erre ene a

0 1
  C     -238.630    -174.630     -42.116
  O     -237.596    -175.334     -42.775
  H     -239.157    -175.318     -41.452
  H     -239.339    -174.235     -42.848
  H     -238.215    -173.812     -41.521
  P     -236.619    -174.482     -43.717
  C     -234.257    -175.322     -43.011
  O     -235.316    -175.390     -43.954
  C     -234.580    -176.202     -41.804
  O     -234.828    -177.557     -42.272
  C     -233.439    -176.272     -40.781
  O     -233.998    -176.329     -39.464
  C     -232.758    -177.591     -41.106
  O     -232.030    -178.142     -40.021
  C     -233.958    -178.440     -41.533
  N     -233.574    -179.589     -42.347
  C     -233.753    -180.856     -41.797
  O     -234.281    -181.076     -40.707
  N     -233.292    -181.900     -42.555
  C     -232.664    -181.807     -43.765
  O     -232.253    -182.780     -44.385
  C     -232.497    -180.443     -44.290
  C     -232.949    -179.416     -43.569
  O     -236.084    -173.325     -42.746
  O     -237.233    -173.945     -44.966
  H     -236.669    -172.544     -42.794
  H     -231.719    -179.032     -40.287
  H     -233.413    -182.826     -42.170
  H     -231.997    -180.329     -45.242
  H     -232.829    -178.396     -43.921
  H     -234.517    -178.785     -40.650
  H     -232.064    -177.453     -41.946
  H     -232.751    -175.430     -40.854
  H     -235.509    -175.847     -41.340
  H     -234.139    -174.284     -42.678
  H     -233.328    -175.652     -43.484
  P     -234.333    -174.931     -38.744
  C     -236.634    -175.704     -37.769
  O     -235.301    -175.294     -37.513
  O     -235.296    -174.247     -39.817
  O     -233.111    -174.150     -38.392
  H     -235.887    -174.874     -40.270
  H     -237.130    -175.904     -36.842
  H     -236.626    -176.591     -38.367
  H     -237.152    -174.927     -38.291

 6  7  8  9  10  11  12  13  14  15  16  27  31  32  33  34  35 0
 6-311+G(2d,p)
 ****
 36  37 0
 6-311+G(2d,p)
 ****
 1  2  3  4  5  17  18  19  20  21  22  23  24  25 0
 3-21G
 ****
 26  28  29  30  38  39  40  41  42  43  44  45 0
 3-21G
 ****


