%nproc=1
%NoSave
%Mem=1900MB
#P OB98/GEN NMR

erre ene a

0 1
  C       96.420    -216.731    -385.528
  O       96.403    -215.369    -385.097
  P       96.667    -214.207    -386.174
  C       98.762    -212.896    -385.476
  O       97.344    -212.954    -385.434
  C       99.298    -211.454    -385.412
  O       98.789    -210.672    -386.536
  C       98.922    -210.693    -384.136
  O      100.036    -209.847    -383.815
  C       97.721    -209.872    -384.567
  O       97.459    -208.787    -383.691
  C       98.161    -209.494    -385.991
  N       97.039    -209.054    -386.815
  C       96.404    -207.864    -386.443
  O       96.724    -207.291    -385.399
  N       95.403    -207.384    -387.246
  C       94.983    -208.098    -388.246
  N       93.998    -207.562    -389.036
  C       95.507    -209.441    -388.557
  C       96.542    -209.837    -387.829
  O       95.505    -213.868    -387.059
  O       97.890    -214.798    -387.040
  H       97.234    -209.140    -382.799
  H       97.786    -214.509    -387.971
  H       95.061    -210.033    -389.346
  H       97.002    -210.802    -387.982
  H       98.912    -208.698    -385.967
  H       96.826    -210.515    -384.594
  H       98.721    -211.352    -383.282
  H      100.392    -211.487    -385.513
  H       93.625    -206.659    -388.795
  H       99.116    -213.365    -386.399
  H       93.648    -208.044    -389.851
  H       99.178    -213.498    -384.650
  P      101.306    -210.472    -383.060
  C      101.001    -209.657    -380.611
  O      101.676    -209.508    -381.841
  O      102.491    -210.169    -384.108
  O      101.245    -211.941    -382.783
  H      103.208    -210.815    -383.967
  H      101.571    -209.121    -379.829
  H      100.924    -210.705    -380.328
  H      100.001    -209.216    -380.678
  H       96.228    -217.372    -384.693
  H       97.379    -216.962    -385.942
  H       95.666    -216.879    -386.272

 3  4  5  6  7  8  9  10  11  12  13  23  27  28  29  30  32 0
 6-311+G(2d,p)
 ****
 34  35 0
 6-311+G(2d,p)
 ****
 1  2  14  15  16  17  18  19  20  21  22  24  25  26 0
 3-21G
 ****
 31  33  36  37  38  39  40  41  42  43  44  45  46 0
 3-21G
 ****


