%nproc=1
%NoSave
%Mem=1900MB
#P OB98/GEN NMR

erre ene a

0 1
  C      -94.124     110.199      18.874
  O      -94.182     109.435      17.684
  H      -93.752     109.561      19.681
  H      -95.120     110.560      19.146
  H      -93.443     111.044      18.753
  P      -94.706     110.150      16.350
  C      -96.776     111.557      15.715
  O      -96.128     110.791      16.722
  C      -98.257     111.708      16.045
  O      -98.942     110.453      15.866
  C      -98.530     112.151      17.482
  O      -98.367     113.555      17.608
  C      -99.972     111.698      17.640
  O     -100.848     112.619      16.961
  C      -99.953     110.344      16.907
  N     -101.759     106.965      20.226
  C     -102.388     108.035      19.618
  N     -103.669     108.260      19.982
  N     -101.807     108.823      18.751
  C     -100.506     108.518      18.541
  C      -99.770     107.496      19.095
  C     -100.438     106.595      20.010
  O      -99.923     105.625      20.558
  N      -98.460     107.541      18.689
  C      -98.413     108.567      17.862
  N      -99.627     109.204      17.748
  O      -94.729     109.307      15.109
  O      -93.755     111.426      16.192
  H     -101.759     112.341      17.170
  H      -92.985     111.226      15.629
  H     -102.256     106.406      20.900
  H      -97.533     108.890      17.320
  H     -100.908     110.123      16.417
  H     -100.295     111.647      18.679
  H     -104.059     107.873      20.833
  H      -97.913     111.602      18.202
  H     -104.131     109.069      19.586
  H      -98.691     112.416      15.327
  H      -96.647     111.031      14.764
  H      -96.315     112.547      15.635
  P      -97.674     114.195      18.907
  C      -98.344     114.109      21.402
  O      -98.792     114.123      20.053
  O      -97.082     115.548      18.698
  O      -96.618     113.095      19.383
  H      -95.730     113.189      18.956
  H      -99.188     114.060      22.058
  H      -97.788     115.001      21.603
  H      -97.718     113.256      21.561

 6  7  8  9  10  11  12  13  14  15  26  29  33  34 0
 6-311+G(2d,p)
 ****
 36  38  39  40  41 0
 6-311+G(2d,p)
 ****
 1  2  3  4  5  16  17  18  19  20  21  22  23  24  25 0
 3-21G
 ****
 27  28  30  31  32  35  37  42  43  44  45  46  47 0
 3-21G
 ****
 48  49 0
 3-21G
 ****


