%nproc=1
%NoSave
%Mem=1900MB
#P OB98/GEN NMR

erre ene a

0 1
  C      -68.242     -45.493     -88.510
  O      -68.405     -46.143     -89.755
  H      -68.940     -45.932     -87.791
  H      -68.454     -44.424     -88.596
  H      -67.223     -45.640     -88.142
  P      -67.697     -45.499     -91.043
  C      -65.253     -45.398     -91.864
  O      -66.117     -45.574     -90.745
  C      -63.870     -44.920     -91.425
  O      -63.961     -43.649     -90.744
  C      -63.176     -45.842     -90.436
  O      -62.812     -47.100     -90.958
  C      -62.100     -44.935     -89.862
  O      -60.945     -44.865     -90.697
  C      -62.828     -43.567     -89.849
  N      -63.231     -43.166     -88.505
  C      -62.253     -42.552     -87.734
  O      -61.099     -42.364     -88.121
  N      -62.633     -42.184     -86.472
  C      -63.853     -42.409     -85.906
  O      -64.125     -42.072     -84.759
  C      -64.836     -43.098     -86.757
  C      -64.487     -43.439     -88.001
  O      -68.177     -44.131     -91.429
  O      -67.901     -46.599     -92.185
  H      -61.263     -44.752     -91.614
  H      -67.728     -46.221     -93.081
  H      -61.942     -41.722     -85.901
  H      -65.811     -43.305     -86.337
  H      -65.196     -43.947     -88.650
  H      -62.172     -42.784     -90.253
  H      -61.767     -45.263     -88.875
  H      -63.875     -46.052     -89.614
  H      -63.262     -44.771     -92.324
  H      -65.704     -44.645     -92.519
  H      -65.170     -46.343     -92.413
  P      -62.384     -48.344     -90.056
  C      -63.578     -49.730     -88.188
  O      -63.424     -48.476     -88.843
  O      -60.928     -48.481     -89.754
  O      -62.807     -49.587     -90.998
  H      -62.155     -50.300     -90.842
  H      -64.306     -49.639     -87.409
  H      -62.641     -50.030     -87.767
  H      -63.902     -50.464     -88.895

 6  7  8  9  10  11  12  13  14  15  16  26  31  32  33  34  35 0
 6-311+G(2d,p)
 ****
 36  37 0
 6-311+G(2d,p)
 ****
 1  2  3  4  5  17  18  19  20  21  22  23  24  25 0
 3-21G
 ****
 27  28  29  30  38  39  40  41  42  43  44  45 0
 3-21G
 ****


