%nproc=1
%NoSave
%Mem=1900MB
#P OB98/GEN NMR

erre ene a

0 1
  C      -87.592      16.175     -28.634
  O      -88.023      16.369     -27.302
  H      -86.911      16.977     -28.930
  H      -87.063      15.220     -28.699
  H      -88.452      16.148     -29.310
  P      -88.810      17.735     -27.003
  C      -91.179      17.573     -28.030
  O      -90.367      17.355     -26.885
  C      -92.596      17.068     -27.770
  O      -92.562      15.617     -27.741
  C      -93.204      17.557     -26.444
  O      -94.510      18.105     -26.661
  C      -93.340      16.297     -25.611
  O      -94.484      16.310     -24.766
  C      -93.419      15.204     -26.669
  N      -94.679      11.476     -23.428
  C      -95.424      12.436     -24.018
  N      -95.048      13.338     -24.946
  C      -93.759      13.162     -25.284
  C      -92.881      12.213     -24.787
  C      -93.383      11.352     -23.797
  N      -92.609      10.410     -23.155
  N      -91.634      12.345     -25.369
  C      -91.746      13.384     -26.172
  N      -93.007      13.919     -26.142
  O      -88.716      18.524     -28.395
  O      -88.252      18.539     -25.879
  H      -95.260      16.483     -25.330
  H      -88.237      19.362     -28.249
  H      -96.461      12.491     -23.696
  H      -90.943      13.816     -26.756
  H      -94.435      15.100     -27.072
  H      -92.447      16.184     -24.985
  H      -92.576      18.301     -25.944
  H      -93.234      17.359     -28.613
  H      -90.760      17.032     -28.886
  H      -93.018       9.917     -22.379
  H      -91.617      10.390     -23.349
  H      -91.191      18.643     -28.261
  P      -94.631      19.707     -26.567
  C      -95.207      20.708     -28.894
  O      -95.701      20.190     -27.665
  O      -93.226      20.213     -27.143
  O      -94.866      20.212     -25.183
  H      -92.783      20.783     -26.486
  H      -96.029      20.986     -29.520
  H      -94.621      19.960     -29.386
  H      -94.599      21.567     -28.700

 6  7  8  9  10  11  12  13  14  15  25  28  32  33  34  35 0
 6-311+G(2d,p)
 ****
 36  39  40 0
 6-311+G(2d,p)
 ****
 1  2  3  4  5  16  17  18  19  20  21  22  23  24 0
 3-21G
 ****
 26  27  29  30  31  37  38  41  42  43  44  45  46  47  48 0
 3-21G
 ****


