%nproc=1
%NoSave
%Mem=1900MB
#P OB98/GEN NMR

erre ene a

0 1
  C      260.029     807.499     417.663
  O      261.442     807.452     417.568
  H      259.651     806.475     417.731
  H      259.617     807.970     416.768
  H      259.724     808.052     418.553
  P      262.193     808.869     417.496
  C      262.007     808.962     414.900
  O      261.696     809.569     416.140
  C      261.585     809.879     413.744
  O      262.477     811.036     413.706
  C      261.666     809.210     412.358
  O      260.665     809.795     411.501
  C      263.043     809.654     411.885
  O      263.177     809.450     410.496
  C      263.041     811.091     412.380
  N      267.309     811.861     409.701
  C      266.127     811.286     409.368
  N      265.033     811.125     410.147
  C      265.245     811.664     411.359
  C      266.384     812.266     411.835
  C      267.464     812.352     410.943
  N      268.680     812.907     411.275
  N      266.214     812.661     413.164
  C      264.990     812.297     413.461
  N      264.361     811.682     412.405
  O      263.711     808.462     417.171
  O      262.092     809.719     418.716
  H      263.264     808.500     410.285
  H      264.214     808.371     418.000
  H      266.050     810.910     408.362
  H      264.508     812.435     414.426
  H      262.399     811.741     411.778
  H      263.834     809.068     412.372
  H      261.534     808.119     412.395
  H      260.570     810.261     413.937
  H      261.477     808.012     414.829
  H      263.081     808.780     414.839
  H      269.409     812.903     410.587
  H      268.824     813.251     412.214
  P      259.149     809.305     411.639
  C      258.807     807.630     409.671
  O      258.978     807.812     411.072
  O      258.409     810.188     410.521
  O      258.514     809.539     412.978
  H      257.590     810.561     410.879
  H      258.708     806.586     409.456
  H      259.658     808.021     409.154
  H      257.926     808.145     409.349

 6  7  8  9  10  11  12  13  14  15  25  28  32  33  34  35 0
 6-311+G(2d,p)
 ****
 36  37  40 0
 6-311+G(2d,p)
 ****
 1  2  3  4  5  16  17  18  19  20  21  22  23  24 0
 3-21G
 ****
 26  27  29  30  31  38  39 41  42  43  44  45  46  47  48 0
 3-21G
 ****


