%nproc=1
%NoSave
%Mem=1900MB
#P OB98/GEN NMR

erre ene a

0 1
  C       84.002    -217.434      73.118
  O       84.296    -218.439      72.158
  P       84.821    -219.855      72.701
  C       83.777    -221.738      74.134
  O       83.741    -220.362      73.776
  C       84.130    -221.906      75.608
  O       85.533    -221.567      75.796
  C       83.311    -221.019      76.559
  O       82.918    -221.793      77.704
  C       84.313    -219.981      77.030
  O       83.966    -219.438      78.300
  C       85.597    -220.809      77.020
  N       88.324    -217.639      79.850
  C       87.253    -218.433      80.199
  N       86.811    -218.324      81.474
  N       86.662    -219.261      79.379
  C       87.228    -219.290      78.148
  C       88.293    -218.558      77.684
  C       88.901    -217.602      78.587
  O       89.795    -216.804      78.309
  N       88.589    -218.877      76.383
  C       87.703    -219.795      76.057
  N       86.821    -220.046      77.081
  O       86.086    -219.447      73.593
  O       85.201    -220.839      71.647
  H       84.772    -219.023      78.664
  H       86.879    -219.924      73.280
  H       88.731    -217.006      80.517
  H       87.637    -220.279      75.092
  H       85.603    -221.516      77.861
  H       84.355    -219.164      76.299
  H       87.243    -217.734      82.168
  H       82.428    -220.564      76.100
  H       86.041    -218.917      81.756
  H       84.020    -222.964      75.874
  H       84.527    -222.248      73.523
  H       82.797    -222.181      73.931
  P       81.588    -221.302      78.460
  C       79.076    -221.239      77.771
  O       80.428    -221.323      77.357
  O       81.855    -219.744      78.704
  O       81.305    -222.040      79.726
  H       81.330    -219.425      79.466
  H       78.985    -221.001      78.836
  H       78.585    -222.196      77.581
  H       78.575    -220.460      77.189
  H       83.665    -216.550      72.618
  H       84.884    -217.210      73.682
  H       83.236    -217.784      73.778

 3  4  5  6  7  8  9  10  11  12  23  26  30  31  33  0
 6-311+G(2d,p)
 ****
 35  36  37  38 0
 6-311+G(2d,p)
 ****
 1  2  13  14  15  16  17  18  19  20  21  22  24  25  27  28  29 0
 3-21G
 ****
 32  34  39  40  41  42  43  44  45  46  47  48  49 0
 3-21G
 ****


