%nproc=1
%NoSave
%Mem=1900MB
#P OB98/GEN NMR

erre ene a

0 1
  C      152.246    -228.866     -76.288
  O      152.735    -227.582     -75.962
  H      152.994    -229.379     -76.899
  H      151.325    -228.779     -76.869
  H      152.066    -229.455     -75.385
  P      151.895    -226.664     -74.953
  C      151.199    -224.842     -76.644
  O      150.767    -225.915     -75.816
  C      150.086    -223.802     -76.807
  O      150.620    -222.667     -77.537
  C      148.867    -224.318     -77.571
  O      147.683    -223.758     -77.003
  C      149.070    -223.774     -78.971
  O      147.839    -223.620     -79.678
  C      149.787    -222.454     -78.693
  N      151.214    -218.459     -81.442
  C      150.456    -218.522     -80.289
  N      149.991    -217.351     -79.805
  N      150.175    -219.636     -79.666
  C      150.722    -220.731     -80.253
  C      151.491    -220.799     -81.391
  C      151.777    -219.560     -82.081
  O      152.427    -219.445     -83.113
  N      151.842    -222.095     -81.676
  C      151.289    -222.806     -80.712
  N      150.589    -222.027     -79.830
  O      152.718    -225.763     -74.086
  O      151.052    -227.704     -74.081
  H      148.064    -223.292     -80.575
  H      151.427    -227.795     -73.185
  H      151.391    -217.576     -81.888
  H      151.359    -223.881     -80.609
  H      149.086    -221.637     -78.473
  H      149.710    -224.458     -79.545
  H      150.190    -216.452     -80.220
  H      148.801    -225.407     -77.557
  H      149.459    -217.366     -78.945
  H      149.803    -223.437     -75.812
  H      151.466    -225.253     -77.624
  H      152.087    -224.379     -76.199
  P      146.960    -224.527     -75.793
  C      145.312    -225.974     -77.135
  O      146.472    -225.967     -76.314
  O      145.924    -223.741     -75.060
  O      148.185    -224.901     -74.829
  H      147.878    -224.857     -73.900
  H      145.083    -226.980     -77.420
  H      145.492    -225.387     -78.011
  H      144.488    -225.561     -76.592

 6  7  8  9  10  11  12  13  14  15  26  29  33  34 0
 6-311+G(2d,p)
 ****
 36  38  39  40  41 0
 6-311+G(2d,p)
 ****
 1  2  3  4  5  16  17  18  19  20  21  22  23  24  25 0
 3-21G
 ****
 27  28  30  31  32  35  37  42  43  44  45  46  47 0
 3-21G
 ****
 48  49 0
 3-21G
 ****


