%nproc=1
%NoSave
%Mem=1900MB
#P OB98/GEN NMR

erre ene a

0 1
  C      120.896     284.956    -209.969
  O      121.239     285.935    -209.012
  H      120.157     284.283    -209.531
  H      121.781     284.376    -210.238
  H      120.464     285.412    -210.864
  P      122.080     287.216    -209.480
  C      124.290     286.377    -208.448
  O      123.283     287.379    -208.429
  C      124.857     286.149    -207.044
  O      125.529     287.364    -206.605
  C      123.793     285.807    -205.989
  O      124.413     284.957    -205.017
  C      123.504     287.169    -205.390
  O      122.857     287.060    -204.143
  C      124.910     287.777    -205.372
  N      124.887     289.231    -205.225
  C      125.353     289.741    -204.021
  O      125.740     289.032    -203.093
  N      125.322     291.101    -203.890
  C      124.819     291.978    -204.807
  O      124.785     293.188    -204.626
  C      124.298     291.378    -206.047
  C      124.358     290.054    -206.199
  O      121.289     288.457    -209.719
  O      122.839     286.728    -210.803
  H      122.761     287.945    -203.730
  H      122.975     287.482    -211.408
  H      125.666     291.488    -203.026
  H      123.883     292.045    -206.791
  H      123.983     289.583    -207.100
  H      125.500     287.363    -204.544
  H      122.848     287.747    -206.048
  H      122.909     285.326    -206.410
  H      125.623     285.366    -207.099
  H      125.086     286.712    -209.121
  H      123.868     285.445    -208.834
  P      124.928     283.479    -205.379
  C      123.083     282.384    -203.955
  O      124.482     282.477    -204.210
  O      126.379     283.407    -205.729
  O      124.024     283.026    -206.621
  H      124.515     282.391    -207.172
  H      122.911     281.689    -203.159
  H      122.581     282.047    -204.838
  H      122.707     283.346    -203.676

 6  7  8  9  10  11  12  13  14  15  16  26  31  32  33  34  35 0
 6-311+G(2d,p)
 ****
 36  37 0
 6-311+G(2d,p)
 ****
 1  2  3  4  5  17  18  19  20  21  22  23  24  25 0
 3-21G
 ****
 27  28  29  30  38  39  40  41  42  43  44  45 0
 3-21G
 ****


