%nproc=1
%NoSave
%Mem=1900MB
#P OB98/GEN NMR

erre ene a

0 1
  C        4.448       9.733     -16.075
  O        4.980      10.802     -15.314
  H        5.205       9.399     -16.790
  H        3.568      10.074     -16.627
  H        4.180       8.896     -15.425
  P        4.113      11.280     -14.055
  C        2.915      13.002     -15.630
  O        2.794      12.000     -14.629
  C        1.558      13.264     -16.276
  O        1.075      12.084     -16.948
  C        0.451      13.595     -15.290
  O        0.578      14.889     -14.744
  C       -0.776      13.429     -16.178
  O       -1.045      14.614     -16.936
  C       -0.352      12.267     -17.109
  N       -1.101      11.055     -16.832
  C       -2.343      10.958     -17.474
  O       -2.721      11.856     -18.227
  N       -3.134       9.870     -17.213
  C       -2.735       8.971     -16.368
  N       -3.582       7.933     -16.129
  C       -1.435       9.035     -15.669
  C       -0.675      10.096     -15.945
  O        4.976      12.500     -13.485
  O        3.826      10.213     -13.052
  H       -0.214      14.835     -17.405
  H        5.242      13.142     -14.163
  H       -1.143       8.254     -14.984
  H        0.295      10.223     -15.477
  H       -0.516      12.538     -18.160
  H       -1.673      13.217     -15.590
  H        0.406      12.833     -14.501
  H        1.683      14.063     -17.020
  H       -4.486       7.957     -16.587
  H        3.646      12.701     -16.388
  H       -3.414       7.219     -15.436
  H        3.291      13.909     -15.148
  P        0.020      15.235     -13.283
  C       -2.229      16.098     -14.200
  O       -1.584      15.141     -13.367
  O        0.529      16.505     -12.689
  O        0.385      13.925     -12.436
  H       -0.010      13.100     -12.768
  H       -3.287      15.937     -14.176
  H       -1.875      15.993     -15.204
  H       -2.010      17.084     -13.846

 6  7  8  9  10  11  12  13  14  15  16  26  30  31  32  33  35 0
 6-311+G(2d,p)
 ****
 37  38 0
 6-311+G(2d,p)
 ****
 1  2  3  4  5  17  18  19  20  21  22  23  24  25 0
 3-21G
 ****
 27  28  29  34  36  39  40  41  42  43  44  45  46 0
 3-21G
 ****


