%nproc=1
%NoSave
%Mem=1900MB
#P OB98/GEN NMR

erre ene a

0 1
  C       65.899     779.670     143.355
  O       66.418     780.457     144.408
  H       66.705     779.450     142.657
  H       65.118     780.224     142.826
  H       65.493     778.728     143.737
  P       65.473     780.787     145.666
  C       66.073     783.288     145.477
  O       66.026     782.141     146.324
  C       66.765     784.439     146.203
  O       66.002     784.830     147.361
  C       68.155     784.080     146.737
  O       69.116     784.036     145.705
  C       68.355     785.185     147.761
  O       68.814     786.391     147.141
  C       66.933     785.364     148.333
  N       66.777     784.709     149.628
  C       67.213     785.426     150.735
  O       67.721     786.553     150.671
  N       67.137     784.773     151.941
  C       66.796     783.460     152.112
  O       66.972     782.851     153.166
  C       66.273     782.776     150.919
  C       66.300     783.416     149.758
  O       65.258     779.658     146.624
  O       64.097     781.253     144.990
  H       63.454     780.521     145.033
  H       68.721     787.096     147.816
  H       67.502     785.272     152.744
  H       65.922     781.756     151.032
  H       65.942     782.927     148.847
  H       66.692     786.433     148.437
  H       69.103     784.900     148.517
  H       68.110     783.112     147.259
  H       66.822     785.299     145.519
  H       65.045     783.583     145.226
  H       66.605     783.025     144.554
  P       69.689     782.631     145.196
  C       72.007     783.726     144.893
  O       70.996     782.917     144.299
  O       68.691     781.718     144.571
  O       70.319     781.967     146.522
  H       69.987     781.058     146.604
  H       72.819     783.844     144.206
  H       72.361     783.255     145.786
  H       71.600     784.686     145.133

 6  7  8  9  10  11  12  13  14  15  16  27  31  32  33  34  35 0
 6-311+G(2d,p)
 ****
 36  37 0
 6-311+G(2d,p)
 ****
 1  2  3  4  5  17  18  19  20  21  22  23  24  25 0
 3-21G
 ****
 26  28  29  30  38  39  40  41  42  43  44  45 0
 3-21G
 ****


