%nproc=1
%NoSave
%Mem=1900MB
#P OB98/GEN NMR

erre ene a

0 1
  C      -98.581      28.331     171.107
  O      -97.170      28.327     171.204
  H      -98.918      29.356     170.930
  H      -99.026      27.968     172.037
  H      -98.900      27.701     170.271
  P      -96.481      26.923     171.578
  C      -97.128      25.162     173.392
  O      -97.188      26.515     172.964
  C      -97.137      25.097     174.917
  O      -95.878      25.564     175.454
  C      -98.205      25.963     175.584
  O      -99.503      25.394     175.532
  C      -97.657      26.004     177.000
  O      -97.905      24.741     177.649
  C      -96.153      26.209     176.728
  N      -95.766      27.625     176.683
  C      -95.882      28.344     177.877
  O      -96.293      27.804     178.902
  N      -95.562      29.683     177.874
  C      -95.142      30.248     176.785
  N      -94.844      31.576     176.845
  C      -94.993      29.525     175.508
  C      -95.316      28.231     175.529
  O      -95.009      27.345     172.045
  O      -96.517      25.872     170.521
  H      -98.870      24.682     177.781
  H      -94.545      26.566     172.440
  H      -94.652      30.043     174.623
  H      -95.233      27.635     174.627
  H      -95.543      25.705     177.490
  H      -98.119      26.775     177.619
  H      -98.209      26.982     175.175
  H      -97.245      24.041     175.205
  H      -95.014      32.058     177.716
  H      -96.206      24.718     173.001
  H      -94.656      32.136     176.021
  H      -97.986      24.606     173.002
  P     -100.733      26.393     175.260
  C     -101.756      28.395     176.579
  O     -100.998      27.189     176.628
  O     -101.986      25.407     175.155
  O     -100.589      27.251     174.038
  H     -102.639      25.739     174.513
  H     -101.843      28.802     177.565
  H     -102.731      28.188     176.191
  H     -101.262      29.101     175.944

 6  7  8  9  10  11  12  13  14  15  16  26  30  31  32  33  35 0
 6-311+G(2d,p)
 ****
 37  38 0
 6-311+G(2d,p)
 ****
 1  2  3  4  5  17  18  19  20  21  22  23  24  25 0
 3-21G
 ****
 27  28  29  34  36  39  40  41  42  43  44  45  46 0
 3-21G
 ****


