%nproc=1
%NoSave
%Mem=1900MB
#P OB98/GEN NMR

erre ene a

0 1
  C      -17.077     -43.082      75.317
  O      -16.947     -42.016      76.237
  H      -17.733     -42.761      74.503
  H      -17.529     -43.949      75.805
  H      -16.105     -43.353      74.897
  P      -15.954     -42.188      77.484
  C      -13.718     -41.289      76.588
  O      -14.867     -41.010      77.373
  C      -12.444     -40.988      77.374
  O      -11.299     -41.379      76.574
  C      -12.281     -39.508      77.738
  O      -11.702     -39.422      79.040
  C      -11.293     -38.999      76.707
  O      -10.554     -37.872      77.174
  C      -10.430     -40.235      76.461
  N       -6.861     -42.346      73.576
  C       -7.301     -42.686      74.840
  N       -6.686     -43.727      75.440
  N       -8.261     -42.056      75.465
  C       -8.799     -41.043      74.742
  C       -8.450     -40.609      73.485
  C       -7.376     -41.305      72.809
  O       -6.933     -41.043      71.697
  N       -9.211     -39.533      73.101
  C      -10.016     -39.316      74.127
  N       -9.797     -40.199      75.151
  O      -15.370     -43.553      77.655
  O      -16.836     -41.757      78.745
  H      -11.202     -37.155      77.346
  H      -17.171     -42.542      79.217
  H       -6.112     -42.859      73.145
  H      -10.763     -38.535      74.182
  H       -9.624     -40.336      77.200
  H      -11.828     -38.705      75.795
  H       -5.951     -44.270      75.013
  H      -13.226     -38.956      77.712
  H       -7.009     -44.009      76.358
  H      -12.433     -41.617      78.273
  H      -13.754     -40.663      75.690
  H      -13.732     -42.343      76.285
  P      -12.577     -38.809      80.235
  C      -14.155     -40.804      80.649
  O      -13.082     -40.019      81.160
  O      -13.633     -37.834      79.828
  O      -11.468     -38.106      81.160
  H      -11.875     -37.340      81.612
  H      -14.400     -41.573      81.351
  H      -13.861     -41.248      79.721
  H      -15.010     -40.180      80.491

 6  7  8  9  10  11  12  13  14  15  26  29  33  34 0
 6-311+G(2d,p)
 ****
 36  38  39  40  41 0
 6-311+G(2d,p)
 ****
 1  2  3  4  5  16  17  18  19  20  21  22  23  24  25 0
 3-21G
 ****
 27  28  30  31  32  35  37  42  43  44  45  46  47 0
 3-21G
 ****
 48  49 0
 3-21G
 ****


