%nproc=1
%NoSave
%Mem=1900MB
#P OB98/GEN NMR

erre ene a

0 1
  C      -47.878     690.574     472.836
  O      -47.588     689.202     472.512
  P      -48.046     688.047     473.527
  C      -46.036     688.019     475.184
  O      -47.414     688.290     474.981
  C      -45.724     687.790     476.670
  O      -46.280     686.508     477.112
  C      -44.228     687.764     477.018
  O      -44.083     688.297     478.338
  C      -43.919     686.275     477.022
  O      -42.737     685.945     477.734
  C      -45.202     685.724     477.665
  N      -45.423     684.298     477.449
  C      -46.709     683.811     477.615
  O      -47.672     684.481     477.990
  N      -46.878     682.470     477.355
  C      -45.897     681.591     476.997
  O      -46.097     680.394     476.815
  C      -44.547     682.158     476.868
  C      -44.380     683.466     477.096
  O      -47.212     686.785     472.995
  O      -49.511     687.734     473.522
  H      -42.028     686.528     477.420
  H      -47.790     686.001     472.946
  H      -47.807     682.101     477.449
  H      -43.736     681.495     476.587
  H      -43.393     683.914     476.987
  H      -45.189     685.932     478.741
  H      -43.800     685.924     475.992
  H      -43.613     688.325     476.305
  H      -46.243     688.569     477.250
  H      -45.444     688.866     474.822
  H      -45.750     687.135     474.601
  P      -43.020     689.484     478.575
  C      -40.881     687.972     478.536
  O      -41.632     689.005     477.929
  O      -42.769     689.340     480.152
  O      -43.505     690.842     478.174
  H      -42.639     688.412     480.430
  H      -41.528     687.172     478.893
  H      -40.317     688.391     479.378
  H      -40.186     687.563     477.802
  H      -47.507     691.210     472.059
  H      -47.406     690.829     473.762
  H      -48.936     690.703     472.928

 3  4  5  6  7  8  9  10  11  12  13  23  28  29  30  31  32 0
 6-311+G(2d,p)
 ****
 33  34 0
 6-311+G(2d,p)
 ****
 1  2  14  15  16  17  18  19  20  21  22  24  25  26 0
 3-21G
 ****
 27  35  36  37  38  39  40  41  42  43  44  45 0
 3-21G
 ****


