%nproc=1
%NoSave
%Mem=1900MB
#P OB98/GEN NMR

erre ene a

0 1
  C      299.339      28.925      81.906
  O      298.038      28.881      82.459
  H      299.874      29.776      82.334
  H      299.278      29.052      80.821
  H      299.882      28.006      82.143
  P      297.133      27.610      82.097
  C      296.192      26.567      79.875
  O      296.884      27.637      80.508
  C      296.054      26.848      78.381
  O      295.042      27.843      78.128
  C      297.305      27.433      77.745
  O      298.349      26.489      77.627
  C      296.743      27.902      76.410
  O      296.599      26.807      75.496
  C      295.355      28.443      76.839
  N      295.316      29.898      76.897
  C      294.903      30.543      75.725
  O      294.585      29.883      74.731
  N      294.884      31.916      75.699
  C      295.226      32.587      76.756
  N      295.195      33.944      76.662
  C      295.642      31.946      78.020
  C      295.671      30.615      78.017
  O      295.704      28.014      82.687
  O      297.657      26.296      82.585
  H      297.477      26.379      75.436
  H      295.382      28.876      82.375
  H      295.909      32.545      78.880
  H      295.967      30.066      78.901
  H      294.579      28.108      76.138
  H      297.391      28.637      75.928
  H      297.633      28.319      78.301
  H      295.748      25.914      77.886
  H      294.923      34.349      75.774
  H      295.210      26.411      80.333
  H      295.471      34.569      77.408
  H      296.777      25.656      80.034
  P      299.882      26.966      77.655
  C      301.384      28.438      76.167
  O      300.124      27.781      76.292
  O      300.877      25.882      77.916
  O      299.886      28.132      78.753
  H      299.304      28.885      78.550
  H      301.430      28.944      75.225
  H      302.170      27.715      76.222
  H      301.496      29.148      76.960

 6  7  8  9  10  11  12  13  14  15  16  26  30  31  32  33  35 0
 6-311+G(2d,p)
 ****
 37  38 0
 6-311+G(2d,p)
 ****
 1  2  3  4  5  17  18  19  20  21  22  23  24  25 0
 3-21G
 ****
 27  28  29  34  36  39  40  41  42  43  44  45  46 0
 3-21G
 ****


