%nproc=1
%NoSave
%Mem=1900MB
#P OB98/GEN NMR

erre ene a

0 1
  C       50.151    -132.591     -53.965
  O       51.332    -132.449     -53.166
  P       52.307    -133.717     -53.065
  C       54.883    -133.801     -52.648
  O       53.618    -133.288     -52.243
  C       55.981    -133.312     -51.702
  O       56.309    -131.932     -51.964
  C       55.579    -133.356     -50.239
  O       55.663    -134.674     -49.739
  C       56.576    -132.387     -49.605
  O       57.773    -133.065     -49.183
  C       56.875    -131.395     -50.753
  N       56.379    -130.055     -50.480
  C       57.235    -129.221     -49.761
  O       58.333    -129.632     -49.377
  N       56.821    -127.944     -49.473
  C       55.636    -127.550     -49.849
  N       55.278    -126.275     -49.531
  C       54.691    -128.414     -50.588
  C       55.123    -129.639     -50.864
  O       52.851    -133.885     -54.560
  O       51.635    -134.959     -52.572
  H       57.471    -133.839     -48.678
  H       53.007    -134.827     -54.756
  H       53.712    -128.047     -50.869
  H       54.490    -130.344     -51.400
  H       57.959    -131.325     -50.917
  H       56.155    -131.910     -48.709
  H       54.555    -132.964     -50.115
  H       56.881    -133.922     -51.863
  H       55.949    -125.714     -49.025
  H       55.104    -133.495     -53.673
  H       54.381    -125.869     -49.769
  H       54.829    -134.903     -52.654
  P       54.396    -135.628     -49.920
  C       54.063    -138.178     -49.823
  O       54.886    -137.083     -49.448
  O       54.329    -135.806     -51.515
  O       53.089    -135.154     -49.361
  H       53.524    -136.298     -51.769
  H       54.615    -139.110     -49.624
  H       53.831    -138.125     -50.884
  H       53.146    -138.177     -49.234
  H       49.595    -131.677     -53.945
  H       49.548    -133.383     -53.573
  H       50.428    -132.819     -54.973

 3  4  5  6  7  8  9  10  11  12  13  21  23  27  28  29  30  32 0
 6-311+G(2d,p)
 ****
 34  35 0
 6-311+G(2d,p)
 ****
 1  2  14  15  16  17  18  19  20  22  24  25  26 0
 3-21G
 ****
 31  33  36  37  38  39  40  41  42  43  44  45  46 0
 3-21G
 ****


