%nproc=1
%NoSave
%Mem=1900MB
#P OB98/GEN NMR

erre ene a

0 1
  C       89.198     -30.853     -87.110
  O       88.895     -29.602     -87.706
  P       89.473     -28.276     -87.016
  C       87.170     -27.874     -85.887
  O       88.577     -27.961     -85.721
  C       86.464     -27.822     -84.530
  O       86.808     -29.004     -83.759
  C       86.846     -26.603     -83.686
  O       85.713     -26.189     -82.908
  C       87.881     -27.148     -82.723
  O       87.971     -26.352     -81.543
  C       87.341     -28.560     -82.494
  N       89.412     -30.656     -78.387
  C       88.215     -29.981     -78.519
  N       87.520     -29.761     -77.381
  N       87.739     -29.563     -79.662
  C       88.545     -29.847     -80.714
  C       89.746     -30.522     -80.711
  C       90.265     -30.968     -79.438
  O       91.332     -31.546     -79.250
  N       90.253     -30.648     -81.979
  C       89.387     -30.014     -82.745
  N       88.353     -29.479     -82.018
  O       89.056     -27.126     -88.050
  O       90.947     -28.283     -86.791
  H       88.281     -25.469     -81.820
  H       89.839     -26.833     -88.552
  H       89.741     -30.947     -77.482
  H       89.473     -29.890     -83.816
  H       86.517     -28.563     -81.771
  H       88.867     -27.167     -83.200
  H       87.864     -29.998     -76.463
  H       87.221     -25.750     -84.263
  H       86.661     -29.230     -77.444
  H       85.381     -27.853     -84.698
  H       86.821     -28.749     -86.437
  H       86.924     -26.981     -86.472
  P       85.327     -24.632     -83.000
  C       86.087     -24.477     -80.515
  O       86.123     -23.915     -81.810
  O       83.804     -24.601     -82.512
  O       85.505     -24.037     -84.357
  H       83.345     -23.827     -82.888
  H       87.099     -24.777     -80.230
  H       85.428     -25.348     -80.460
  H       85.729     -23.722     -79.810
  H       88.746     -31.638     -87.680
  H       88.817     -30.873     -86.110
  H       90.259     -30.991     -87.091

 3  4  5  6  7  8  9  10  11  12  23  26  30  31 0
 6-311+G(2d,p)
 ****
 33  35  36  37  38 0
 6-311+G(2d,p)
 ****
 1  2  13  14  15  16  17  18  19  20  21  22  24  25 0
 3-21G
 ****
 27  28  29  32  34  39  40  41  42  43  44  45  46  47  48  49 0
 3-21G
 ****


