%nproc=1
%NoSave
%Mem=1900MB
#P OB98/GEN NMR

erre ene a

0 1
  C     -146.817     -57.082       8.480
  O     -147.088     -56.559       9.763
  H     -147.382     -58.010       8.350
  H     -145.752     -57.302       8.381
  H     -147.125     -56.372       7.708
  P     -146.350     -55.191      10.157
  C     -147.895     -53.313       9.256
  O     -147.514     -54.101      10.374
  C     -149.334     -52.819       9.418
  O     -150.136     -53.886       9.999
  C     -149.469     -51.591      10.328
  O     -150.483     -50.732       9.795
  C     -149.964     -52.184      11.636
  O     -150.646     -51.227      12.438
  C     -150.844     -53.317      11.116
  N     -154.375     -55.054      14.251
  C     -154.434     -54.055      13.299
  N     -155.615     -53.414      13.160
  N     -153.422     -53.711      12.549
  C     -152.310     -54.452      12.777
  C     -152.120     -55.456      13.694
  C     -153.243     -55.813      14.535
  O     -153.245     -56.672      15.411
  N     -150.835     -55.937      13.641
  C     -150.253     -55.225      12.692
  N     -151.109     -54.314      12.137
  O     -145.665     -54.728       8.787
  O     -145.366     -55.289      11.274
  H     -151.396     -50.875      11.914
  H     -144.847     -54.223       8.960
  H     -155.182     -55.271      14.810
  H     -149.223     -55.327      12.375
  H     -151.819     -52.958      10.760
  H     -149.119     -52.578      12.214
  H     -156.447     -53.647      13.679
  H     -148.540     -51.031      10.449
  H     -155.685     -52.687      12.457
  H     -149.750     -52.621       8.423
  H     -147.820     -53.920       8.348
  H     -147.219     -52.457       9.172
  P     -150.076     -49.215       9.470
  C     -148.806     -49.961       7.334
  O     -149.771     -49.089       7.899
  O     -148.627     -49.082      10.141
  O     -151.023     -48.203      10.024
  H     -148.684     -48.525      10.938
  H     -148.713     -49.759       6.287
  H     -149.116     -50.975       7.476
  H     -147.862     -49.806       7.813

 6  7  8  9  10  11  12  13  14  15  26  29  33  34 0
 6-311+G(2d,p)
 ****
 36  38  39  40  41 0
 6-311+G(2d,p)
 ****
 1  2  3  4  5  16  17  18  19  20  21  22  23  24  25 0
 3-21G
 ****
 27  28  30  31  32  35  37  42  43  44  45  46  47 0
 3-21G
 ****
 48  49 0
 3-21G
 ****


