%nproc=1
%NoSave
%Mem=1900MB
#P OB98/GEN NMR

erre ene a

0 1
  C     -305.900     364.375     120.652
  O     -306.495     365.460     119.937
  P     -307.033     365.127     118.458
  C     -305.972     367.054     117.081
  O     -307.160     366.509     117.650
  C     -306.101     368.567     116.853
  O     -307.428     368.912     116.375
  C     -305.843     369.406     118.118
  O     -305.202     370.618     117.689
  C     -307.249     369.721     118.594
  O     -307.255     370.835     119.496
  C     -307.937     369.949     117.255
  N     -312.094     372.668     118.196
  C     -310.762     373.010     118.308
  N     -310.497     374.289     118.677
  N     -309.771     372.180     118.074
  C     -310.195     370.956     117.674
  C     -311.482     370.498     117.516
  C     -312.562     371.414     117.798
  O     -313.761     371.162     117.714
  N     -311.497     369.188     117.060
  C     -310.213     368.852     117.023
  N     -309.389     369.898     117.328
  O     -308.549     364.690     118.712
  O     -306.252     364.058     117.771
  H     -307.140     371.644     118.954
  H     -308.628     363.717     118.696
  H     -312.825     373.341     118.402
  H     -309.842     367.882     116.754
  H     -307.687     370.926     116.812
  H     -307.672     368.849     119.112
  H     -311.206     374.988     118.825
  H     -305.230     368.904     118.876
  H     -309.528     374.578     118.725
  H     -305.381     368.854     116.071
  H     -305.762     366.566     116.122
  H     -305.127     366.820     117.731
  P     -303.620     370.603     117.487
  C     -302.751     372.785     118.584
  O     -303.122     372.123     117.386
  O     -303.448     370.058     115.986
  O     -302.877     369.739     118.461
  H     -302.681     369.454     115.940
  H     -302.041     373.579     118.343
  H     -302.296     372.104     119.301
  H     -303.638     373.236     119.037
  H     -305.582     364.714     121.616
  H     -305.055     364.009     120.107
  H     -306.617     363.589     120.769

 3  4  5  6  7  8  9  10  11  12  23  26  30  31 0
 6-311+G(2d,p)
 ****
 33  35  36  37  38 0
 6-311+G(2d,p)
 ****
 1  2  13  14  15  16  17  18  19  20  21  22  24  25 0
 3-21G
 ****
 27  28  29  32  34  39  40  41  42  43  44  45  46  47  48  49 0
 3-21G
 ****


