%nproc=1
%NoSave
%Mem=1900MB
#P OB98/GEN NMR

erre ene a

0 1
  C      301.354      45.122     386.052
  O      301.214      43.752     385.734
  P      301.306      42.651     386.893
  C      302.704      41.233     385.262
  O      301.632      41.240     386.201
  C      303.192      39.805     385.021
  O      303.865      39.300     386.194
  C      302.073      38.807     384.733
  O      301.605      38.954     383.405
  C      302.770      37.487     385.024
  O      303.561      37.073     383.897
  C      303.676      37.864     386.206
  N      303.578      34.112     389.660
  C      304.083      34.174     388.411
  N      304.036      35.198     387.533
  C      303.359      36.234     388.060
  C      302.756      36.305     389.305
  C      302.900      35.183     390.141
  N      302.440      35.132     391.440
  N      302.126      37.529     389.466
  C      302.339      38.171     388.338
  N      303.136      37.458     387.486
  O      300.168      42.636     387.853
  O      302.675      43.006     387.645
  H      304.162      36.372     384.211
  H      302.484      43.218     388.578
  H      304.609      33.280     388.072
  H      301.959      39.156     388.099
  H      304.671      37.416     386.116
  H      302.068      36.682     385.242
  H      301.252      38.949     385.448
  H      303.914      39.824     384.196
  H      303.520      41.838     385.672
  H      302.729      34.341     391.995
  H      302.218      36.008     391.903
  H      302.368      41.682     384.322
  P      300.033      38.909     383.104
  C      300.325      37.218     381.197
  O      299.861      38.503     381.562
  O      299.259      40.109     383.536
  O      299.540      37.589     383.871
  H      298.623      37.722     384.181
  H      301.414      37.232     381.107
  H      299.891      36.951     380.232
  H      300.029      36.473     381.938
  H      301.265      45.706     385.160
  H      302.314      45.289     386.494
  H      300.589      45.408     386.743

 3  4  5  6  7  8  9  10  11  12  22  25  29  30  31  32 0
 6-311+G(2d,p)
 ****
 33  36  37 0
 6-311+G(2d,p)
 ****
 1  2  13  14  15  16  17  18  19  20  21  23  24  26 0
 3-21G
 ****
 27  28  34  35  38  39  40  41  42  43  44  45  46  47  48 0
 3-21G
 ****


