%nproc=1
%NoSave
%Mem=1900MB
#P OB98/GEN NMR

erre ene a

0 1
  C     1236.061    -270.836     760.692
  O     1234.992    -271.741     760.917
  H     1237.002    -271.328     761.005
  H     1235.929    -269.938     761.298
  H     1236.131    -270.582     759.642
  P     1233.522    -271.197     760.552
  C     1233.408    -271.893     758.042
  O     1232.968    -272.154     759.375
  C     1232.821    -272.925     757.079
  O     1233.549    -274.184     757.167
  C     1231.354    -273.257     757.336
  O     1230.503    -272.292     756.732
  C     1231.228    -274.637     756.676
  O     1231.089    -274.517     755.249
  C     1232.589    -275.264     757.035
  N     1230.306    -279.108     759.413
  C     1230.101    -278.590     758.155
  N     1229.120    -279.155     757.416
  N     1230.794    -277.603     757.633
  C     1231.745    -277.137     758.478
  C     1232.059    -277.556     759.768
  C     1231.290    -278.666     760.299
  O     1231.476    -279.208     761.380
  N     1233.084    -276.827     760.305
  C     1233.373    -275.924     759.364
  N     1232.561    -276.059     758.252
  O     1233.820    -269.811     759.781
  O     1232.608    -270.997     761.705
  H     1231.745    -273.886     754.936
  H     1233.080    -269.200     759.942
  H     1229.750    -279.869     759.736
  H     1234.150    -275.173     759.452
  H     1232.945    -275.920     756.239
  H     1230.371    -275.171     757.055
  H     1228.352    -279.648     757.871
  H     1231.143    -273.351     758.416
  H     1228.937    -278.763     756.495
  H     1232.952    -272.547     756.055
  H     1234.509    -271.962     758.010
  H     1233.112    -270.887     757.757
  P     1228.907    -272.498     756.897
  C     1228.812    -272.131     759.467
  O     1228.448    -271.645     758.172
  O     1228.780    -274.020     757.396
  O     1228.121    -272.269     755.642
  H     1227.868    -274.333     757.265
  H     1228.440    -271.463     760.216
  H     1229.878    -272.190     759.539
  H     1228.390    -273.103     759.615

 6  7  8  9  10  11  12  13  14  15  26  29  33  34 0
 6-311+G(2d,p)
 ****
 36  38  39  40  41 0
 6-311+G(2d,p)
 ****
 1  2  3  4  5  16  17  18  19  20  21  22  23  24  25 0
 3-21G
 ****
 27  28  30  31  32  35  37  42  43  44  45  46  47 0
 3-21G
 ****
 48  49 0
 3-21G
 ****


