%nproc=1
%NoSave
%Mem=1900MB
#P OB98/GEN NMR

erre ene a

0 1
  C      -62.506     181.948    -447.771
  O      -62.089     182.699    -448.896
  H      -63.195     181.167    -448.109
  H      -63.027     182.591    -447.056
  H      -61.644     181.477    -447.294
  P      -61.095     183.927    -448.610
  C      -59.814     185.489    -450.210
  O      -60.967     184.673    -450.029
  C      -59.621     185.814    -451.695
  O      -59.077     184.641    -452.356
  C      -60.920     186.191    -452.414
  O      -60.654     187.229    -453.355
  C      -61.305     184.917    -453.148
  O      -62.115     185.174    -454.294
  C      -59.937     184.317    -453.467
  N      -60.032     180.579    -456.941
  C      -59.820     181.909    -457.048
  N      -59.794     182.835    -456.061
  C      -59.973     182.253    -454.862
  C      -60.206     180.916    -454.595
  C      -60.241     180.051    -455.706
  N      -60.480     178.705    -455.613
  N      -60.379     180.715    -453.240
  C      -60.247     181.912    -452.694
  N      -60.015     182.876    -453.640
  O      -59.803     183.572    -447.952
  O      -62.036     184.917    -447.782
  H      -61.645     185.813    -454.864
  H      -62.924     184.985    -448.180
  H      -59.654     182.283    -458.059
  H      -60.321     182.130    -451.635
  H      -59.493     184.735    -454.382
  H      -61.869     184.254    -452.477
  H      -61.702     186.510    -451.719
  H      -58.870     186.607    -451.783
  H      -58.924     184.974    -449.829
  H      -60.472     178.154    -456.457
  H      -60.616     178.286    -454.695
  H      -59.960     186.410    -449.638
  P      -61.476     188.601    -453.235
  C      -60.808     191.075    -453.572
  O      -60.696     189.741    -454.059
  O      -61.910     188.983    -451.861
  O      -62.746     188.319    -454.172
  H      -63.541     188.733    -453.771
  H      -60.248     191.733    -454.203
  H      -60.423     191.124    -452.575
  H      -61.837     191.370    -453.573

 6  7  8  9  10  11  12  13  14  15  25  28  32  33  34  35 0
 6-311+G(2d,p)
 ****
 36  39  40 0
 6-311+G(2d,p)
 ****
 1  2  3  4  5  16  17  18  19  20  21  22  23  24 0
 3-21G
 ****
 26  27  29  30  31  37  38  41  42  43  44  45  46  47 0
 3-21G
 ****
 48 0
 3-21G
 ****


