%nproc=1
%NoSave
%Mem=1900MB
#P OB98/GEN NMR

erre ene a

0 1
  C     -104.662     -41.550      12.226
  O     -105.202     -41.048      13.438
  P     -106.288     -39.864      13.434
  C     -106.228     -37.414      12.613
  O     -105.472     -38.556      12.995
  C     -105.593     -36.154      13.195
  O     -105.645     -36.208      14.634
  C     -104.124     -35.964      12.839
  O     -103.977     -35.502      11.505
  C     -103.689     -34.987      13.924
  O     -104.091     -33.651      13.584
  C     -104.499     -35.483      15.141
  N     -103.711     -36.312      16.047
  C     -104.089     -36.299      17.393
  O     -105.045     -35.627      17.777
  N     -103.392     -37.082      18.280
  C     -102.391     -37.797      17.866
  N     -101.780     -38.605      18.776
  C     -101.924     -37.796      16.468
  C     -102.625     -37.044      15.621
  O     -107.062     -39.721      14.700
  O     -107.193     -40.155      12.151
  H     -104.999     -33.713      13.226
  H     -107.959     -40.753      12.335
  H     -101.077     -38.399      16.174
  H     -102.359     -37.006      14.573
  H     -104.900     -34.631      15.701
  H     -102.607     -34.978      14.096
  H     -103.578     -36.908      12.953
  H     -106.182     -35.288      12.863
  H     -102.241     -38.705      19.674
  H     -107.244     -37.520      13.008
  H     -101.203     -39.385      18.485
  H     -106.278     -37.363      11.520
  P     -102.876     -36.221      10.589
  C     -100.412     -36.952      10.947
  O     -101.527     -36.245      11.463
  O     -102.590     -35.142       9.443
  O     -103.301     -37.539      10.032
  H     -103.060     -35.384       8.623
  H      -99.530     -36.676      11.529
  H     -100.240     -36.694       9.900
  H     -100.576     -38.028      11.047
  H     -103.961     -42.329      12.443
  H     -104.166     -40.760      11.702
  H     -105.452     -41.940      11.618

 3  4  5  6  7  8  9  10  11  12  13  23  27  28  29  30  32 0
 6-311+G(2d,p)
 ****
 34  35 0
 6-311+G(2d,p)
 ****
 1  2  14  15  16  17  18  19  20  21  22  24  25  26 0
 3-21G
 ****
 31  33  36  37  38  39  40  41  42  43  44  45  46 0
 3-21G
 ****


