%nproc=1
%NoSave
%Mem=1900MB
#P OB98/GEN NMR

erre ene a

0 1
  C      106.634     219.978     628.234
  O      106.608     219.348     626.966
  H      106.904     221.029     628.092
  H      107.371     219.504     628.883
  H      105.640     219.930     628.692
  P      106.265     217.780     626.953
  C      104.944     218.131     624.755
  O      106.003     217.442     625.405
  C      105.100     218.031     623.235
  O      105.371     216.673     622.846
  C      103.860     218.465     622.447
  O      103.833     219.868     622.296
  C      104.111     217.766     621.113
  O      105.027     218.538     620.331
  C      104.777     216.441     621.543
  N      103.333     212.017     619.371
  C      104.125     213.013     618.933
  N      104.429     214.185     619.531
  C      103.806     214.277     620.726
  C      102.962     213.344     621.303
  C      102.732     212.163     620.576
  N      101.914     211.142     621.023
  N      102.511     213.775     622.531
  C      103.119     214.930     622.719
  N      103.890     215.296     621.643
  O      105.203     217.343     627.910
  O      107.713     217.142     627.204
  H      105.898     218.495     620.770
  H      108.390     217.630     626.700
  H      104.585     212.848     617.962
  H      103.054     215.532     623.621
  H      105.584     216.158     620.865
  H      103.197     217.644     620.530
  H      102.940     218.074     622.894
  H      105.975     218.641     622.944
  H      104.932     219.194     625.055
  H      101.644     210.437     620.364
  H      101.369     211.313     621.868
  H      104.002     217.668     625.069
  P      102.443     220.664     622.193
  C      103.703     222.736     623.063
  O      102.860     222.213     622.040
  O      101.470     220.357     623.275
  O      101.890     220.303     620.731
  H      100.931     220.513     620.684
  H      103.914     223.765     622.860
  H      104.618     222.183     623.088
  H      103.210     222.653     624.009

 6  7  8  9  10  11  12  13  14  15  25  28  32  33  34  35 0
 6-311+G(2d,p)
 ****
 36  39  40 0
 6-311+G(2d,p)
 ****
 1  2  3  4  5  16  17  18  19  20  21  22  23  24 0
 3-21G
 ****
 26  27  29  30  31  37  38  41  42  43  44  45  46  47 0
 3-21G
 ****
 48 0
 3-21G
 ****


