%nproc=1
%NoSave
%Mem=1900MB
#P OB98/GEN NMR

erre ene a

0 1
  C      265.910     323.898      15.711
  O      264.503     323.783      15.765
  H      266.245     323.644      14.701
  H      266.373     323.206      16.419
  H      266.214     324.923      15.938
  P      263.821     324.057      17.192
  C      263.789     326.063      18.834
  O      264.418     325.453      17.715
  C      264.780     326.948      19.588
  O      265.744     326.141      20.300
  C      265.575     327.898      18.701
  O      264.837     329.079      18.428
  C      266.800     328.159      19.564
  O      266.514     329.145      20.583
  C      267.044     326.779      20.193
  N      271.906     325.671      19.380
  C      271.334     326.666      20.150
  N      272.182     327.508      20.778
  N      270.045     326.828      20.285
  C      269.316     325.950      19.557
  C      269.763     324.927      18.753
  C      271.192     324.723      18.656
  O      271.759     323.812      18.058
  N      268.712     324.240      18.192
  C      267.639     324.871      18.629
  N      267.954     325.922      19.457
  O      264.518     322.979      18.151
  O      262.336     323.930      17.230
  H      267.287     329.226      21.169
  H      263.853     322.646      18.783
  H      272.903     325.575      19.338
  H      266.621     324.605      18.386
  H      267.451     326.861      21.207
  H      267.630     328.556      18.978
  H      273.145     327.613      20.490
  H      265.887     327.405      17.770
  H      271.761     328.279      21.283
  H      264.213     327.511      20.342
  H      263.420     325.277      19.503
  H      262.944     326.668      18.492
  P      265.335     330.033      17.241
  C      264.986     330.022      14.670
  O      265.111     329.252      15.856
  O      266.926     330.021      17.423
  O      264.803     331.422      17.292
  H      267.222     330.870      17.809
  H      264.842     329.369      13.834
  H      265.875     330.598      14.524
  H      264.146     330.679      14.758

 6  7  8  9  10  11  12  13  14  15  26  29  33  34 0
 6-311+G(2d,p)
 ****
 36  38  39  40  41 0
 6-311+G(2d,p)
 ****
 1  2  3  4  5  16  17  18  19  20  21  22  23  24  25 0
 3-21G
 ****
 27  28  30  31  32  35  37  42  43  44  45  46  47 0
 3-21G
 ****
 48  49 0
 3-21G
 ****


