%nproc=1
%NoSave
%Mem=1900MB
#P OB98/GEN NMR

erre ene a

0 1
  C     -116.001      51.273      19.063
  O     -116.877      50.849      20.086
  H     -116.340      50.854      18.112
  H     -114.995      50.900      19.269
  H     -115.986      52.363      18.985
  P     -116.818      51.642      21.479
  C     -118.121      53.650      20.477
  O     -118.067      52.652      21.485
  C     -119.207      54.677      20.800
  O     -119.042      55.823      19.911
  C     -120.642      54.151      20.624
  O     -121.472      54.724      21.642
  C     -121.053      54.742      19.288
  O     -122.466      54.844      19.153
  C     -120.337      56.087      19.341
  N     -122.708      59.166      16.166
  C     -122.943      58.898      17.499
  N     -124.012      59.493      18.068
  N     -122.193      58.105      18.218
  C     -121.144      57.589      17.533
  C     -120.806      57.771      16.215
  C     -121.654      58.638      15.423
  O     -121.511      58.897      14.234
  N     -119.705      57.022      15.882
  C     -119.394      56.374      16.992
  N     -120.240      56.684      18.020
  O     -115.555      52.606      21.279
  O     -116.681      50.789      22.694
  H     -122.789      55.500      19.804
  H     -114.758      52.188      21.655
  H     -123.326      59.770      15.653
  H     -118.588      55.663      17.096
  H     -120.852      56.814      19.982
  H     -120.670      54.122      18.469
  H     -124.618      60.140      17.588
  H     -120.722      53.060      20.652
  H     -124.173      59.338      19.056
  H     -119.052      55.041      21.822
  H     -118.353      53.178      19.516
  H     -117.145      54.139      20.401
  P     -122.172      53.734      22.689
  C     -120.118      53.079      24.146
  O     -121.351      53.779      24.066
  O     -121.825      52.285      22.103
  O     -123.646      53.933      22.818
  H     -122.564      51.673      22.276
  H     -119.698      53.207      25.122
  H     -119.441      53.465      23.413
  H     -120.286      52.038      23.964

 6  7  8  9  10  11  12  13  14  15  26  29  33  34 0
 6-311+G(2d,p)
 ****
 36  38  39  40  41 0
 6-311+G(2d,p)
 ****
 1  2  3  4  5  16  17  18  19  20  21  22  23  24  25 0
 3-21G
 ****
 27  28  30  31  32  35  37  42  43  44  45  46  47 0
 3-21G
 ****
 48  49 0
 3-21G
 ****


