%nproc=1
%NoSave
%Mem=1900MB
#P OB98/GEN NMR

erre ene a

0 1
  C       57.802      55.797    -194.256
  O       56.494      55.296    -194.101
  H       57.801      56.519    -195.078
  H       58.493      54.990    -194.512
  H       58.133      56.302    -193.346
  P       56.208      54.176    -192.986
  C       56.401      52.421    -194.848
  O       55.595      52.923    -193.791
  C       56.028      50.977    -195.185
  O       56.478      50.097    -194.119
  C       54.518      50.754    -195.360
  O       54.277      49.993    -196.546
  C       54.135      49.931    -194.140
  O       52.958      49.153    -194.339
  C       55.425      49.140    -193.909
  N       55.473      48.544    -192.580
  C       55.905      47.216    -192.515
  O       56.227      46.618    -193.543
  N       55.912      46.581    -191.301
  C       55.477      47.202    -190.249
  N       55.483      46.506    -189.081
  C       54.985      48.595    -190.277
  C       55.014      49.202    -191.463
  O       55.393      54.643    -191.828
  O       57.656      53.644    -192.559
  H       52.870      48.526    -193.589
  H       57.595      53.235    -191.665
  H       54.629      49.066    -189.373
  H       54.672      50.224    -191.582
  H       55.536      48.342    -194.654
  H       53.954      50.605    -193.293
  H       53.950      51.681    -195.412
  H       56.581      50.676    -196.084
  H       55.822      45.552    -189.109
  H       57.453      52.484    -194.546
  H       55.147      46.875    -188.205
  H       56.242      53.046    -195.732
  P       54.334      50.802    -197.931
  C       51.749      50.947    -198.105
  O       52.962      50.533    -198.717
  O       55.431      50.003    -198.779
  O       54.706      52.238    -197.766
  H       56.237      50.545    -198.872
  H       50.926      50.702    -198.743
  H       51.774      52.005    -197.944
  H       51.634      50.446    -197.167

 6  7  8  9  10  11  12  13  14  15  16  26  30  31  32  33  35 0
 6-311+G(2d,p)
 ****
 37  38 0
 6-311+G(2d,p)
 ****
 1  2  3  4  5  17  18  19  20  21  22  23  24  25 0
 3-21G
 ****
 27  28  29  34  36  39  40  41  42  43  44  45  46 0
 3-21G
 ****


