%nproc=1
%NoSave
%Mem=1900MB
#P OB98/GEN NMR

erre ene a

0 1
  C     -116.166     393.718    -175.652
  O     -117.189     394.109    -176.548
  H     -115.928     392.661    -175.786
  H     -115.267     394.310    -175.861
  H     -116.476     393.904    -174.619
  P     -118.602     393.365    -176.403
  C     -119.725     395.485    -175.397
  O     -119.369     394.116    -175.209
  C     -120.290     396.044    -174.095
  O     -119.282     396.002    -173.057
  C     -120.732     397.499    -174.180
  O     -122.019     397.638    -174.757
  C     -120.742     397.877    -172.708
  O     -121.922     397.342    -172.079
  C     -119.488     397.154    -172.191
  N     -116.886     400.806    -169.725
  C     -118.065     400.203    -169.459
  N     -118.689     399.243    -170.171
  C     -117.977     398.911    -171.259
  C     -116.765     399.447    -171.666
  C     -116.205     400.439    -170.837
  N     -115.010     401.069    -171.114
  N     -116.356     398.880    -172.855
  C     -117.287     397.996    -173.144
  N     -118.292     397.987    -172.214
  O     -118.218     391.951    -175.750
  O     -119.389     393.219    -177.660
  H     -122.657     397.943    -172.308
  H     -118.931     391.304    -175.915
  H     -118.573     400.539    -168.558
  H     -117.281     397.344    -174.008
  H     -119.608     396.783    -171.167
  H     -120.747     398.954    -172.542
  H     -119.989     398.119    -174.705
  H     -121.123     395.401    -173.779
  H     -120.483     395.553    -176.180
  H     -114.796     401.886    -170.565
  H     -114.581     400.907    -172.011
  H     -118.835     396.045    -175.702
  P     -122.161     398.610    -176.024
  C     -123.173     396.875    -177.681
  O     -122.044     397.670    -177.317
  O     -120.781     399.415    -176.021
  O     -123.351     399.516    -175.987
  H     -120.884     400.287    -176.451
  H     -122.942     396.307    -178.558
  H     -124.009     397.513    -177.879
  H     -123.414     396.210    -176.878

 6  7  8  9  10  11  12  13  14  15  25  28  32  33  34  35 0
 6-311+G(2d,p)
 ****
 36  39  40 0
 6-311+G(2d,p)
 ****
 1  2  3  4  5  16  17  18  19  20  21  22  23  24 0
 3-21G
 ****
 26  27  29  30  31  37  38  41  42  43  44  45  46  47 0
 3-21G
 ****
 48 0
 3-21G
 ****


