%nproc=1
%NoSave
%Mem=1900MB
#P OB98/GEN NMR

erre ene a

0 1
  C      843.206    -239.346    2010.783
  O      844.087    -238.296    2011.152
  H      842.256    -238.927    2010.491
  H      843.058    -240.018    2011.637
  H      843.626    -239.916    2009.948
  P      845.638    -238.591    2011.368
  C      846.335    -237.933    2008.972
  O      846.228    -238.990    2009.923
  C      847.263    -238.351    2007.814
  O      848.612    -238.602    2008.365
  C      846.841    -239.639    2007.074
  O      847.259    -239.494    2005.718
  C      847.678    -240.683    2007.792
  O      847.686    -241.899    2007.096
  C      848.986    -239.937    2007.938
  N      849.912    -240.546    2008.880
  C      850.787    -241.535    2008.364
  O      850.772    -241.912    2007.209
  N      851.583    -242.117    2009.299
  C      851.668    -241.833    2010.625
  O      852.461    -242.387    2011.392
  C      850.751    -240.791    2011.114
  C      849.938    -240.203    2010.205
  O      845.966    -239.563    2012.468
  O      846.282    -237.152    2011.636
  H      846.374    -237.016    2012.615
  H      848.201    -241.791    2006.251
  H      852.209    -242.845    2008.946
  H      850.760    -240.544    2012.141
  H      849.210    -239.426    2010.534
  H      849.482    -239.804    2006.973
  H      847.234    -240.907    2008.793
  H      845.744    -239.802    2007.130
  H      847.365    -237.498    2007.124
  H      846.735    -237.051    2009.477
  H      845.339    -237.709    2008.584
  P      846.376    -238.684    2004.615
  C      847.842    -236.578    2004.270
  O      846.644    -237.096    2004.820
  O      844.947    -239.056    2004.592
  O      847.061    -239.014    2003.211
  H      846.382    -239.079    2002.511
  H      847.902    -235.529    2004.471
  H      847.848    -236.740    2003.212
  H      848.681    -237.074    2004.712

 6  7  8  9  10  11  12  13  14  15  16  27  31  32  33  34  35 0
 6-311+G(2d,p)
 ****
 36  37 0
 6-311+G(2d,p)
 ****
 1  2  3  4  5  17  18  19  20  21  22  23  24  25 0
 3-21G
 ****
 26  28  29  30  38  39  40  41  42  43  44  45 0
 3-21G
 ****


