%nproc=1
%NoSave
%Mem=1900MB
#P OB98/GEN NMR

erre ene a

0 1
  C        5.626     -74.028      93.713
  O        4.881     -74.426      94.845
  H        4.942     -73.908      92.869
  H        6.362     -74.795      93.459
  H        6.129     -73.075      93.893
  P        5.615     -74.496      96.267
  C        5.815     -77.036      95.854
  O        6.469     -75.851      96.281
  C        6.813     -78.193      95.729
  O        7.547     -78.310      96.987
  C        6.161     -79.564      95.459
  O        7.104     -80.335      94.702
  C        6.018     -80.097      96.873
  O        5.691     -81.462      96.906
  C        7.380     -79.671      97.439
  N        7.507     -79.752      98.888
  C        8.574     -80.480      99.404
  O        9.420     -81.058      98.724
  N        8.650     -80.536     100.771
  C        7.794     -79.938     101.649
  O        7.930     -79.997     102.864
  C        6.683     -79.189     101.044
  C        6.595     -79.125      99.714
  O        4.742     -74.286      97.458
  O        6.747     -73.366      96.162
  H        6.458     -72.568      96.643
  H        6.322     -81.957      96.339
  H        9.419     -81.056     101.163
  H        5.979     -78.711     101.711
  H        5.792     -78.572      99.239
  H        8.177     -80.262      96.976
  H        5.203     -79.581      97.386
  H        5.222     -79.490      94.905
  H        7.548     -77.946      94.954
  H        5.355     -76.840      94.879
  H        5.030     -77.293      96.572
  P        7.116     -80.390      93.097
  C        4.964     -81.813      92.882
  O        5.602     -80.574      92.594
  O        8.062     -81.398      92.533
  O        7.500     -78.910      92.626
  H        7.924     -78.947      91.748
  H        3.967     -81.800      92.493
  H        4.932     -81.960      93.941
  H        5.513     -82.611      92.428

 6  7  8  9  10  11  12  13  14  15  16  27  31  32  33  34  35 0
 6-311+G(2d,p)
 ****
 36  37 0
 6-311+G(2d,p)
 ****
 1  2  3  4  5  17  18  19  20  21  22  23  24  25 0
 3-21G
 ****
 26  28  29  30  38  39  40  41  42  43  44  45 0
 3-21G
 ****


