%nproc=1
%NoSave
%Mem=1900MB
#P OB98/GEN NMR

erre ene a

0 1
  C      231.020    -543.137     551.679
  O      230.298    -542.907     550.484
  H      232.092    -543.138     551.464
  H      230.805    -542.326     552.380
  H      230.728    -544.083     552.136
  P      230.221    -544.114     549.432
  C      232.378    -543.390     548.180
  O      230.976    -543.608     548.105
  C      232.920    -542.931     546.826
  O      232.803    -544.036     545.884
  C      232.184    -541.719     546.225
  O      233.149    -540.877     545.592
  C      231.296    -542.343     545.170
  O      230.961    -541.433     544.122
  C      232.157    -543.516     544.706
  N      229.291    -544.464     540.615
  C      230.195    -543.498     540.878
  N      230.958    -543.350     541.977
  C      230.765    -544.368     542.830
  C      229.889    -545.428     542.698
  C      229.108    -545.445     541.529
  N      228.135    -546.388     541.280
  N      229.939    -546.244     543.815
  C      230.816    -545.670     544.616
  N      231.341    -544.531     544.066
  O      228.672    -544.105     549.010
  O      230.654    -545.447     549.947
  H      230.162    -540.934     544.381
  H      228.164    -544.662     549.628
  H      230.314    -542.739     540.109
  H      231.078    -546.012     545.608
  H      232.931    -543.218     543.990
  H      230.366    -542.695     545.630
  H      231.618    -541.139     546.965
  H      233.989    -542.718     546.936
  H      232.869    -544.325     548.464
  H      227.554    -546.258     540.466
  H      227.911    -547.059     542.002
  H      232.590    -542.637     548.951
  P      233.567    -539.528     546.349
  C      231.553    -538.423     545.115
  O      232.886    -538.290     545.589
  O      235.122    -539.368     545.997
  O      233.337    -539.566     547.827
  H      235.593    -538.953     546.732
  H      231.252    -537.515     544.636
  H      230.900    -538.625     545.938
  H      231.503    -539.230     544.414

 6  7  8  9  10  11  12  13  14  15  25  28  32  33  34  35 0
 6-311+G(2d,p)
 ****
 36  39  40 0
 6-311+G(2d,p)
 ****
 1  2  3  4  5  16  17  18  19  20  21  22  23  24 0
 3-21G
 ****
 26  27  29  30  31  37  38  41  42  43  44  45  46  47 0
 3-21G
 ****
 48 0
 3-21G
 ****


