%nproc=1
%NoSave
%Mem=1900MB
#P OB98/GEN NMR

erre ene a

0 1
  C      128.420      32.188     -48.937
  O      127.082      32.505     -48.612
  H      128.877      31.685     -48.079
  H      128.989      33.095     -49.155
  H      128.453      31.509     -49.794
  P      126.201      33.311     -49.680
  C      123.740      33.183     -50.450
  O      124.666      32.928     -49.400
  C      122.587      32.173     -50.394
  O      123.084      30.908     -50.898
  C      122.067      31.954     -48.965
  O      120.655      32.129     -48.848
  C      122.643      30.592     -48.590
  O      121.901      29.888     -47.615
  C      122.762      29.880     -49.942
  N      123.766      28.819     -49.965
  C      123.471      27.645     -49.277
  O      122.423      27.422     -48.669
  N      124.447      26.681     -49.307
  C      125.653      26.777     -49.934
  O      126.485      25.875     -49.932
  C      125.916      28.046     -50.627
  C      124.976      28.996     -50.610
  O      126.629      33.178     -51.104
  O      126.286      34.832     -49.184
  H      121.938      30.402     -46.782
  H      126.917      35.324     -49.742
  H      124.240      25.823     -48.821
  H      126.868      28.162     -51.127
  H      125.135      29.947     -51.112
  H      121.805      29.438     -50.227
  H      123.647      30.748     -48.177
  H      122.471      32.710     -48.281
  H      121.790      32.507     -51.069
  H      124.276      33.097     -51.402
  H      123.345      34.201     -50.355
  P      119.946      33.445     -48.291
  C      117.594      34.476     -48.821
  O      118.374      33.318     -48.562
  O      120.596      34.735     -48.663
  O      120.068      33.282     -46.688
  H      120.156      34.185     -46.322
  H      116.574      34.192     -48.976
  H      117.965      34.967     -49.696
  H      117.656      35.142     -47.986

 6  7  8  9  10  11  12  13  14  15  16  26  31  32  33  34  35 0
 6-311+G(2d,p)
 ****
 36  37 0
 6-311+G(2d,p)
 ****
 1  2  3  4  5  17  18  19  20  21  22  23  24  25 0
 3-21G
 ****
 27  28  29  30  38  39  40  41  42  43  44  45 0
 3-21G
 ****


