%nproc=1
%NoSave
%Mem=1900MB
#P OB98/GEN NMR

erre ene a

0 1
  C     -490.841     293.668     506.238
  O     -489.443     293.760     505.968
  P     -488.474     294.405     507.075
  C     -487.114     292.245     507.476
  O     -487.070     293.617     507.075
  C     -485.694     291.701     507.697
  O     -485.023     291.517     506.407
  C     -484.812     292.622     508.552
  O     -484.174     291.952     509.640
  C     -483.880     293.272     507.541
  O     -482.677     293.742     508.113
  C     -483.751     292.196     506.453
  N     -483.377     292.760     505.145
  C     -482.023     292.869     504.891
  O     -481.144     292.609     505.712
  N     -481.685     293.381     503.666
  C     -482.554     293.847     502.719
  O     -482.204     294.332     501.654
  C     -483.989     293.757     503.076
  C     -484.324     293.214     504.260
  O     -489.077     294.611     508.425
  O     -488.064     295.820     506.420
  H     -482.066     294.013     507.393
  H     -488.030     296.485     507.136
  H     -480.696     293.465     503.447
  H     -484.713     294.127     502.360
  H     -485.364     293.144     504.545
  H     -482.981     291.460     506.713
  H     -484.385     294.148     507.102
  H     -485.416     293.402     509.045
  H     -485.786     290.714     508.171
  H     -487.601     291.648     506.698
  H     -487.719     292.153     508.371
  P     -484.429     292.256     511.182
  C     -485.150     289.858     511.862
  O     -484.202     290.904     512.016
  O     -485.710     292.983     511.497
  O     -483.170     293.153     511.591
  H     -483.465     293.866     512.182
  H     -485.085     289.197     512.733
  H     -484.903     289.280     510.963
  H     -486.182     290.246     511.783
  H     -491.337     293.218     505.403
  H     -491.238     294.648     506.402
  H     -490.997     293.069     507.111

 3  4  5  6  7  8  9  10  11  12  13  23  28  29  30  31  32 0
 6-311+G(2d,p)
 ****
 33  34 0
 6-311+G(2d,p)
 ****
 1  2  14  15  16  17  18  19  20  21  22  24  25  26  27 0
 3-21G
 ****
 35  36  37  38  39  40  41  42  43  44  45 0
 3-21G
 ****


