%nproc=1
%NoSave
%Mem=1900MB
#P OB98/GEN NMR

erre ene a

0 1
  C      -66.634     -35.263     196.459
  O      -67.043     -33.924     196.756
  P      -67.522     -33.562     198.240
  C      -69.941     -34.469     198.369
  O      -68.579     -34.670     198.732
  C      -70.872     -35.361     199.221
  O      -70.849     -36.721     198.716
  C      -70.469     -35.398     200.705
  O      -71.563     -35.115     201.590
  C      -69.820     -36.764     200.861
  O      -69.851     -37.240     202.202
  C      -70.556     -37.607     199.812
  N      -69.761     -38.774     199.393
  C      -70.469     -39.921     199.047
  O      -71.696     -40.013     199.157
  N      -69.711     -40.991     198.634
  C      -68.354     -41.042     198.605
  O      -67.715     -42.038     198.271
  C      -67.654     -39.817     199.043
  C      -68.384     -38.756     199.408
  O      -67.954     -32.146     198.457
  O      -66.229     -33.908     199.128
  H      -69.416     -36.573     202.778
  H      -66.157     -33.224     199.831
  H      -70.211     -41.823     198.370
  H      -66.569     -39.830     199.053
  H      -67.897     -37.846     199.742
  H      -71.504     -37.991     200.212
  H      -68.762     -36.686     200.572
  H      -69.731     -34.620     200.944
  H      -71.887     -34.961     199.107
  H      -70.081     -34.723     197.319
  H      -70.195     -33.412     198.473
  P      -71.619     -33.874     202.590
  C      -69.766     -34.695     204.218
  O      -70.183     -33.711     203.283
  O      -72.773     -33.850     203.539
  O      -71.692     -32.612     201.599
  H      -72.319     -31.956     201.964
  H      -68.980     -34.264     204.853
  H      -69.365     -35.563     203.690
  H      -70.601     -35.015     204.861
  H      -66.348     -35.329     195.430
  H      -67.446     -35.934     196.647
  H      -65.802     -35.528     197.078

 3  4  5  6  7  8  9  10  11  12  13  23  28  29  30  31  32 0
 6-311+G(2d,p)
 ****
 33  34 0
 6-311+G(2d,p)
 ****
 1  2  14  15  16  17  18  19  20  21  22  24  25  26  27 0
 3-21G
 ****
 35  36  37  38  39  40  41  42  43  44  45 0
 3-21G
 ****


