%nproc=1
%NoSave
%Mem=1900MB
#P OB98/GEN NMR

erre ene a

0 1
  C      341.811     238.040    -390.009
  O      342.839     237.562    -390.853
  H      340.847     237.833    -390.481
  H      341.909     239.116    -389.859
  H      341.847     237.525    -389.046
  P      344.346     237.818    -390.358
  C      344.822     238.207    -392.862
  O      345.243     237.558    -391.668
  C      344.773     237.209    -394.023
  O      345.974     236.394    -393.984
  C      343.567     236.262    -393.968
  O      343.120     235.997    -395.297
  C      344.158     234.991    -393.371
  O      343.390     233.838    -393.697
  C      345.567     235.016    -393.963
  N      347.484     230.328    -393.389
  C      346.723     230.880    -394.350
  N      346.272     232.149    -394.438
  C      346.741     232.891    -393.414
  C      347.526     232.467    -392.355
  C      347.898     231.114    -392.356
  N      348.648     230.534    -391.362
  N      347.757     233.517    -391.483
  C      347.130     234.552    -392.006
  N      346.486     234.213    -393.173
  O      344.763     237.060    -389.142
  O      344.383     239.411    -390.223
  H      343.551     233.153    -393.012
  H      343.989     239.847    -391.005
  H      346.423     230.208    -395.155
  H      347.102     235.552    -391.592
  H      345.604     234.623    -394.994
  H      344.193     235.075    -392.284
  H      342.745     236.651    -393.369
  H      344.798     237.766    -394.970
  H      345.513     239.022    -393.111
  H      348.868     229.552    -391.438
  H      348.972     231.099    -390.588
  H      343.830     238.632    -392.683
  P      342.046     236.969    -395.967
  C      340.458     235.371    -397.221
  O      341.526     236.313    -397.334
  O      342.452     238.405    -396.079
  O      340.772     236.815    -395.004
  H      340.366     237.691    -394.850
  H      340.201     235.005    -398.193
  H      339.607     235.848    -396.782
  H      340.767     234.554    -396.603

 6  7  8  9  10  11  12  13  14  15  25  28  32  33  34  35 0
 6-311+G(2d,p)
 ****
 36  39  40 0
 6-311+G(2d,p)
 ****
 1  2  3  4  5  16  17  18  19  20  21  22  23  24 0
 3-21G
 ****
 26  27  29  30  31  37  38  41  42  43  44  45  46  47 0
 3-21G
 ****
 48 0
 3-21G
 ****


