%nproc=1
%NoSave
%Mem=1900MB
#P OB98/GEN NMR

erre ene a

0 1
  C       24.390     -28.413     -92.072
  O       23.119     -28.092     -91.542
  H       25.155     -28.109     -91.353
  H       24.556     -27.881     -93.013
  H       24.464     -29.492     -92.234
  P       21.850     -28.426     -92.466
  C       20.988     -27.372     -94.654
  O       22.119     -27.602     -93.821
  C       21.223     -26.150     -95.545
  O       21.467     -25.000     -94.694
  C       22.423     -26.301     -96.482
  O       22.118     -25.695     -97.738
  C       23.519     -25.508     -95.787
  O       24.507     -25.033     -96.697
  C       22.713     -24.406     -95.097
  N       25.758     -20.647     -93.472
  C       25.110     -20.844     -94.640
  N       24.301     -21.870     -94.984
  C       24.155     -22.726     -93.957
  C       24.756     -22.661     -92.711
  C       25.600     -21.558     -92.481
  N       26.286     -21.363     -91.304
  N       24.394     -23.749     -91.941
  C       23.580     -24.454     -92.707
  N       23.419     -23.882     -93.939
  O       20.514     -28.206     -91.838
  O       22.160     -29.931     -92.909
  H       24.999     -25.804     -97.049
  H       23.096     -30.044     -93.163
  H       25.263     -20.082     -95.401
  H       23.096     -25.383     -92.420
  H       22.502     -23.560     -95.760
  H       24.020     -26.143     -95.047
  H       22.709     -27.341     -96.632
  H       20.304     -25.941     -96.103
  H       20.093     -27.212     -94.042
  H       26.860     -20.539     -91.220
  H       26.166     -22.023     -90.548
  H       20.833     -28.264     -95.269
  P       21.577     -26.629     -98.924
  C       22.391     -28.776    -100.104
  O       22.766     -27.597     -99.396
  O       20.843     -25.932    -100.019
  O       20.604     -27.641     -98.147
  H       19.828     -27.832     -98.710
  H       23.268     -29.332    -100.361
  H       21.867     -28.505    -100.996
  H       21.756     -29.376     -99.486

 6  7  8  9  10  11  12  13  14  15  25  28  32  33  34  35 0
 6-311+G(2d,p)
 ****
 36  39  40 0
 6-311+G(2d,p)
 ****
 1  2  3  4  5  16  17  18  19  20  21  22  23  24 0
 3-21G
 ****
 26  27  29  30  31  37  38  41  42  43  44  45  46  47 0
 3-21G
 ****
 48 0
 3-21G
 ****


