%nproc=1
%NoSave
%Mem=1900MB
#P OB98/GEN NMR

erre ene a

0 1
  C     -470.862    -263.046    -169.633
  O     -470.289    -264.339    -169.545
  P     -468.783    -264.457    -169.002
  C     -467.986    -265.747    -171.118
  O     -467.842    -264.595    -170.295
  C     -467.141    -265.594    -172.385
  O     -467.707    -264.602    -173.263
  C     -465.712    -265.137    -172.133
  O     -464.863    -266.207    -171.738
  C     -465.319    -264.632    -173.512
  O     -464.959    -265.741    -174.359
  C     -466.627    -263.984    -174.001
  N     -465.356    -259.503    -175.983
  C     -465.350    -260.761    -176.563
  N     -464.890    -260.840    -177.826
  N     -465.771    -261.843    -175.954
  C     -466.194    -261.616    -174.687
  C     -466.251    -260.417    -174.011
  C     -465.777    -259.229    -174.686
  O     -465.707    -258.105    -174.210
  N     -466.755    -260.585    -172.744
  C     -467.004    -261.872    -172.657
  N     -466.645    -262.547    -173.790
  O     -468.733    -265.921    -168.358
  O     -468.390    -263.397    -168.026
  H     -464.055    -266.011    -174.091
  H     -467.968    -265.997    -167.764
  H     -465.021    -258.701    -176.484
  H     -467.432    -262.359    -171.789
  H     -466.803    -264.174    -175.062
  H     -464.458    -263.957    -173.490
  H     -464.494    -260.056    -178.324
  H     -465.677    -264.310    -171.417
  H     -464.814    -261.759    -178.252
  H     -467.153    -266.561    -172.913
  H     -469.032    -265.872    -171.386
  H     -467.661    -266.631    -170.555
  P     -463.397    -265.809    -171.224
  C     -462.281    -267.190    -173.123
  O     -462.447    -265.929    -172.512
  O     -462.975    -267.067    -170.324
  O     -463.326    -264.523    -170.472
  H     -462.328    -266.800    -169.648
  H     -461.838    -267.049    -174.111
  H     -463.241    -267.704    -173.241
  H     -461.608    -267.809    -172.528
  H     -471.861    -263.123    -170.008
  H     -470.278    -262.442    -170.295
  H     -470.879    -262.597    -168.662

 3  4  5  6  7  8  9  10  11  12  23  26  30  31 0
 6-311+G(2d,p)
 ****
 33  35  36  37  38 0
 6-311+G(2d,p)
 ****
 1  2  13  14  15  16  17  18  19  20  21  22  24  25 0
 3-21G
 ****
 27  28  29  32  34  39  40  41  42  43  44  45  46  47  48  49 0
 3-21G
 ****


