%nproc=1
%NoSave
%Mem=1900MB
#P OB98/GEN NMR

erre ene a

0 1
  C      301.818     787.309     989.109
  O      301.031     788.266     988.419
  H      301.289     786.355     989.098
  H      301.975     787.619     990.145
  H      302.790     787.182     988.605
  P      301.653     789.743     988.300
  C      300.865     791.954     987.179
  O      300.715     790.549     987.253
  C      300.143     792.469     985.928
  O      300.867     792.071     984.749
  C      298.747     791.909     985.744
  O      297.786     792.557     986.576
  C      298.524     792.155     984.261
  O      298.071     793.494     984.016
  C      299.913     791.939     983.664
  N      300.297     789.508     979.188
  C      300.266     790.812     979.497
  N      300.172     791.389     980.729
  C      300.137     790.443     981.682
  C      300.174     789.072     981.512
  C      300.260     788.583     980.197
  N      300.265     787.261     979.872
  N      300.085     788.440     982.744
  C      300.017     789.405     983.629
  N      300.044     790.631     983.042
  O      303.011     789.510     987.487
  O      301.886     790.440     989.603
  H      298.841     794.078     984.156
  H      303.770     789.488     988.106
  H      300.302     791.502     978.658
  H      299.928     789.252     984.707
  H      300.168     792.685     982.913
  H      297.762     791.469     983.863
  H      298.738     790.814     985.927
  H      300.112     793.571     985.962
  H      301.921     792.213     987.114
  H      300.443     792.407     988.081
  H      300.268     787.001     978.906
  H      300.128     786.585     980.607
  P      296.274     792.045     986.494
  C      294.325     791.756     988.222
  O      295.710     791.989     987.989
  O      296.399     790.497     986.078
  O      295.403     792.800     985.549
  H      295.647     790.246     985.492
  H      294.136     791.753     989.275
  H      294.048     790.810     987.807
  H      293.750     792.531     987.759

 6  7  8  9  10  11  12  13  14  15  25  28  32  33  34  35 0
 6-311+G(2d,p)
 ****
 36  37  40 0
 6-311+G(2d,p)
 ****
 1  2  3  4  5  16  17  18  19  20  21  22  23  24 0
 3-21G
 ****
 26  27  29  30  31  38  39 41  42  43  44  45  46  47  48 0
 3-21G
 ****


