%nproc=1
%NoSave
%Mem=1900MB
#P OB98/GEN NMR

erre ene a

0 1
  C      246.558     243.059    -106.562
  O      247.664     242.922    -105.694
  H      246.744     242.458    -107.458
  H      246.434     244.101    -106.867
  H      245.646     242.698    -106.081
  P      247.745     243.850    -104.385
  C      248.228     241.823    -102.882
  O      248.734     243.059    -103.382
  C      249.329     241.006    -102.205
  O      250.204     240.435    -103.213
  C      250.207     241.818    -101.241
  O      250.367     241.093    -100.017
  C      251.537     241.928    -101.971
  O      252.627     242.140    -101.076
  C      251.557     240.604    -102.744
  N      252.511     240.604    -103.850
  C      253.781     240.083    -103.572
  O      254.056     239.681    -102.442
  N      254.717     240.057    -104.575
  C      254.432     240.555    -105.739
  N      255.409     240.509    -106.691
  C      253.121     241.157    -106.060
  C      252.216     241.143    -105.083
  O      246.424     244.222    -103.798
  O      248.623     245.107    -104.835
  H      252.812     241.292    -100.607
  H      248.462     245.860    -104.214
  H      252.934     241.569    -107.043
  H      251.219     241.552    -105.227
  H      251.798     239.765    -102.080
  H      251.506     242.767    -102.674
  H      249.799     242.796    -101.010
  H      248.862     240.158    -101.692
  H      256.297     240.089    -106.427
  H      247.793     241.261    -103.714
  H      255.297     240.870    -107.626
  H      247.447     242.047    -102.148
  P      249.626     241.712     -98.730
  C      248.991     239.426     -97.678
  O      249.727     240.636     -97.539
  O      248.079     241.678     -99.150
  O      250.075     243.088     -98.379
  H      247.790     242.560     -99.442
  H      249.151     238.810     -96.818
  H      249.320     238.907     -98.554
  H      247.949     239.651     -97.766

 6  7  8  9  10  11  12  13  14  15  16  26  30  31  32  33  35 0
 6-311+G(2d,p)
 ****
 37  38 0
 6-311+G(2d,p)
 ****
 1  2  3  4  5  17  18  19  20  21  22  23  24  25 0
 3-21G
 ****
 27  28  29  34  36  39  40  41  42  43  44  45  46 0
 3-21G
 ****


