%nproc=1
%NoSave
%Mem=1900MB
#P OB98/GEN NMR

erre ene a

0 1
  C      712.511    -895.690    1124.193
  O      711.799    -895.380    1123.009
  H      711.925    -896.390    1124.778
  H      712.670    -894.780    1124.786
  H      713.470    -896.150    1123.948
  P      712.504    -894.480    1121.885
  C      713.374    -896.540    1120.593
  O      712.572    -895.380    1120.545
  C      712.527    -897.790    1120.339
  O      711.717    -898.100    1121.504
  C      711.527    -897.620    1119.195
  O      712.160    -897.700    1117.929
  C      710.551    -898.750    1119.504
  O      711.034    -900.000    1119.000
  C      710.523    -898.750    1121.066
  N      709.306    -898.090    1121.575
  C      709.003    -898.330    1122.885
  O      709.661    -899.050    1123.643
  N      707.838    -897.750    1123.344
  C      706.924    -897.070    1122.550
  O      705.806    -896.790    1122.935
  C      707.379    -896.780    1121.175
  C      708.520    -897.310    1120.768
  O      713.799    -893.850    1122.285
  O      711.400    -893.380    1121.516
  H      711.631    -892.550    1121.964
  H      710.993    -899.950    1118.027
  H      707.572    -897.970    1124.285
  H      706.714    -896.210    1120.550
  H      708.848    -897.140    1119.714
  H      710.551    -899.790    1121.436
  H      709.567    -898.590    1119.050
  H      711.001    -896.650    1119.304
  H      713.187    -898.650    1120.141
  H      713.837    -896.610    1121.596
  H      714.181    -896.470    1119.856
  P      711.636    -896.750    1116.715
  C      713.693    -895.220    1116.629
  O      712.906    -896.200    1115.930
  O      710.626    -895.740    1117.099
  O      711.022    -897.830    1115.687
  H      710.128    -897.540    1115.435
  H      714.516    -894.920    1116.015
  H      714.063    -895.643    1117.540
  H      713.085    -894.368    1116.852

 6  7  8  9  10  11  12  13  14  15  16  27  31  32  33  34  35 0
 6-311+G(2d,p)
 ****
 36  37 0
 6-311+G(2d,p)
 ****
 1  2  3  4  5  17  18  19  20  21  22  23  24  25 0
 3-21G
 ****
 26  28  29  30  38  39  40  41  42  43  44  45 0
 3-21G
 ****


