%nproc=1
%NoSave
%Mem=1900MB
#P OB98/GEN NMR

erre ene a

0 1
  C       55.680      38.785    -141.774
  O       56.243      40.080    -141.727
  H       56.335      38.095    -141.233
  H       55.602      38.448    -142.812
  H       54.692      38.768    -141.305
  P       55.359      41.329    -142.209
  C       55.728      40.964    -144.736
  O       54.794      40.958    -143.667
  C       55.204      41.802    -145.909
  O       54.105      41.075    -146.543
  C       54.658      43.187    -145.495
  O       54.909      44.084    -146.586
  C       53.175      42.889    -145.365
  O       52.408      44.061    -145.305
  C       52.982      41.979    -146.582
  N       51.714      41.256    -146.573
  C       50.888      41.398    -147.687
  O       51.175      42.074    -148.671
  N       49.690      40.734    -147.625
  C       49.247      39.965    -146.587
  O       48.173      39.373    -146.596
  C       50.152      39.876    -145.427
  C       51.326      40.515    -145.471
  O       56.014      42.665    -142.106
  O       54.049      41.241    -141.287
  H       54.139      41.855    -140.533
  H       51.457      43.856    -145.426
  H       49.078      40.825    -148.423
  H       49.824      39.293    -144.578
  H       52.020      40.474    -144.637
  H       53.062      42.552    -147.512
  H       52.981      42.338    -144.437
  H       55.124      43.574    -144.584
  H       55.998      41.897    -146.659
  H       55.886      39.929    -145.060
  H       56.682      41.375    -144.381
  P       56.362      44.695    -146.909
  C       55.424      47.085    -146.665
  O       56.460      46.181    -146.309
  O       56.736      44.615    -148.355
  O       57.390      43.849    -146.014
  H       58.225      43.733    -146.507
  H       55.605      48.034    -146.204
  H       54.484      46.699    -146.331
  H       55.403      47.203    -147.728

 6  7  8  9  10  11  12  13  14  15  16  27  31  32  33  34  35 0
 6-311+G(2d,p)
 ****
 36  37 0
 6-311+G(2d,p)
 ****
 1  2  3  4  5  17  18  19  20  21  22  23  24  25 0
 3-21G
 ****
 26  28  29  30  38  39  40  41  42  43  44  45 0
 3-21G
 ****


