%nproc=1
%NoSave
%Mem=1900MB
#P OB98/GEN NMR

erre ene a

0 1
  C        3.274      22.111      -8.086
  O        2.436      21.273      -8.850
  H        2.681      22.557      -7.282
  H        3.668      22.911      -8.718
  H        4.102      21.551      -7.642
  P        3.106      20.170      -9.796
  C        3.090      21.718     -11.861
  O        3.882      20.940     -10.972
  C        3.899      22.219     -13.058
  O        4.884      23.183     -12.626
  C        4.678      21.096     -13.743
  O        3.946      20.341     -14.691
  C        5.810      21.867     -14.414
  O        5.398      22.370     -15.696
  C        6.059      23.021     -13.440
  N       10.911      21.454     -13.127
  C       10.054      21.420     -14.211
  N       10.535      20.841     -15.333
  N        8.837      21.892     -14.181
  C        8.461      22.353     -12.965
  C        9.217      22.426     -11.816
  C       10.584      21.949     -11.874
  O       11.381      21.950     -10.941
  N        8.497      22.958     -10.773
  C        7.290      23.136     -11.271
  N        7.226      22.808     -12.605
  O        1.856      19.528     -10.571
  O        3.900      19.115      -9.087
  H        6.097      22.958     -16.035
  H        2.066      18.616     -10.841
  H       11.847      21.101     -13.215
  H        6.439      23.522     -10.720
  H        6.211      23.969     -13.972
  H        6.684      21.233     -14.591
  H       11.420      20.361     -15.367
  H        5.116      20.425     -12.996
  H        9.863      20.559     -16.050
  H        3.228      22.732     -13.757
  H        2.712      22.565     -11.285
  H        2.223      21.143     -12.198
  P        4.378      18.835     -15.022
  C        5.522      19.756     -17.171
  O        5.612      18.916     -16.041
  O        3.168      18.311     -15.929
  O        4.596      17.967     -13.831
  H        2.528      17.817     -15.383
  H        6.427      19.689     -17.738
  H        5.374      20.767     -16.853
  H        4.697      19.449     -17.779

 6  7  8  9  10  11  12  13  14  15  26  29  33  34 0
 6-311+G(2d,p)
 ****
 36  38  39  40  41 0
 6-311+G(2d,p)
 ****
 1  2  3  4  5  16  17  18  19  20  21  22  23  24  25 0
 3-21G
 ****
 27  28  30  31  32  35  37  42  43  44  45  46  47 0
 3-21G
 ****
 48  49 0
 3-21G
 ****


