%nproc=1
%NoSave
%Mem=1900MB
#P OB98/GEN NMR

erre ene a

0 1
  C     -256.190     -45.877     210.404
  O     -257.410     -46.578     210.280
  H     -255.397     -46.474     209.946
  H     -255.942     -45.717     211.458
  H     -256.248     -44.917     209.884
  P     -258.717     -45.964     210.981
  C     -258.147     -46.903     213.330
  O     -258.277     -45.749     212.514
  C     -257.696     -46.510     214.735
  O     -257.604     -47.665     215.593
  C     -256.313     -45.865     214.806
  O     -256.290     -44.525     214.335
  C     -256.055     -45.961     216.300
  O     -256.819     -44.954     216.989
  C     -256.602     -47.376     216.611
  N     -255.559     -48.403     216.611
  C     -254.752     -48.477     217.752
  O     -254.925     -47.704     218.695
  N     -253.734     -49.402     217.785
  C     -253.529     -50.172     216.762
  N     -252.480     -51.038     216.825
  C     -254.369     -50.140     215.548
  C     -255.352     -49.240     215.533
  O     -259.992     -46.719     210.781
  O     -258.781     -44.454     210.450
  H     -256.588     -45.015     217.932
  H     -259.584     -44.032     210.847
  H     -254.152     -50.800     214.718
  H     -256.000     -49.146     214.671
  H     -257.113     -47.390     217.581
  H     -255.004     -45.811     216.568
  H     -255.570     -46.472     214.280
  H     -258.467     -45.854     215.159
  H     -251.900     -51.003     217.654
  H     -257.426     -47.576     212.859
  H     -252.092     -51.462     215.986
  H     -259.110     -47.417     213.409
  P     -254.859     -43.865     214.016
  C     -254.557     -43.282     216.541
  O     -254.018     -43.906     215.384
  O     -255.216     -42.316     213.834
  O     -254.132     -44.432     212.835
  H     -255.365     -42.097     212.896
  H     -253.877     -43.400     217.359
  H     -255.494     -43.736     216.788
  H     -254.706     -42.240     216.348

 6  7  8  9  10  11  12  13  14  15  16  26  30  31  32  33  35 0
 6-311+G(2d,p)
 ****
 37  38 0
 6-311+G(2d,p)
 ****
 1  2  3  4  5  17  18  19  20  21  22  23  24  25 0
 3-21G
 ****
 27  28  29  34  36  39  40  41  42  43  44  45  46 0
 3-21G
 ****


