%nproc=1
%NoSave
%Mem=1900MB
#P OB98/GEN NMR

erre ene a

0 1
  C       -4.306     -40.134     -63.330
  O       -4.693     -40.981     -62.245
  P       -6.220     -40.887     -61.766
  C       -7.356     -42.370     -63.570
  O       -7.159     -41.061     -63.054
  C       -8.507     -43.057     -62.835
  O       -9.761     -42.371     -63.046
  C       -8.751     -44.488     -63.295
  O       -7.762     -45.364     -62.780
  C      -10.155     -44.728     -62.751
  O      -10.106     -45.032     -61.347
  C      -10.818     -43.357     -62.961
  N      -15.558     -42.678     -64.761
  C      -15.063     -42.689     -63.504
  N      -13.787     -42.880     -63.108
  C      -12.982     -43.062     -64.167
  C      -13.343     -43.072     -65.504
  C      -14.703     -42.873     -65.791
  N      -15.211     -42.876     -67.071
  N      -12.240     -43.292     -66.304
  C      -11.236     -43.435     -65.462
  N      -11.633     -43.292     -64.161
  O       -6.391     -39.345     -61.376
  O       -6.544     -41.786     -60.619
  H       -9.612     -45.870     -61.247
  H       -6.456     -39.252     -60.408
  H      -15.786     -42.525     -62.711
  H      -10.212     -43.641     -65.746
  H      -11.461     -43.074     -62.120
  H      -10.671     -45.555     -63.247
  H       -8.759     -44.538     -64.390
  H       -8.281     -43.045     -61.760
  H       -6.444     -42.962     -63.461
  H      -16.209     -42.805     -67.184
  H      -14.597     -43.107     -67.839
  H       -7.559     -42.299     -64.643
  P       -6.911     -46.227     -63.830
  C       -4.728     -44.934     -63.433
  O       -5.782     -45.202     -64.338
  O       -7.908     -46.296     -65.075
  O       -6.415     -47.534     -63.315
  H       -8.304     -45.427     -65.270
  H       -4.019     -44.255     -63.914
  H       -4.211     -45.860     -63.170
  H       -5.121     -44.456     -62.532
  H       -3.271     -40.290     -63.553
  H       -4.462     -39.111     -63.057
  H       -4.895     -40.367     -64.192

 3  4  5  6  7  8  9  10  11  12  22  25  29  30  31  32 0
 6-311+G(2d,p)
 ****
 33  36  37 0
 6-311+G(2d,p)
 ****
 1  2  13  14  15  16  17  18  19  20  21  23  24  26 0
 3-21G
 ****
 27  28  34  35  38  39  40  41  42  43  44  45  46  47  48 0
 3-21G
 ****


