%nproc=1
%NoSave
%Mem=1900MB
#P OB98/GEN NMR

erre ene a

0 1
  C     -198.877    -656.550    -250.460
  O     -199.084    -655.369    -251.218
  P     -200.483    -654.598    -251.070
  C     -202.998    -655.362    -251.060
  O     -201.634    -655.707    -251.231
  C     -203.838    -655.955    -252.198
  O     -203.403    -655.374    -253.463
  C     -203.740    -657.484    -252.337
  O     -205.025    -657.952    -252.761
  C     -202.719    -657.655    -253.449
  O     -202.813    -658.921    -254.084
  C     -203.071    -656.461    -254.346
  N     -201.988    -656.073    -255.255
  C     -202.189    -656.259    -256.624
  O     -203.214    -656.752    -257.105
  N     -201.147    -655.888    -257.434
  C     -199.930    -655.419    -257.016
  O     -199.029    -655.116    -257.791
  C     -199.758    -655.286    -255.563
  C     -200.780    -655.606    -254.763
  O     -200.531    -653.781    -252.443
  O     -200.581    -653.764    -249.834
  H     -200.142    -654.267    -253.190
  H     -203.686    -658.980    -254.509
  H     -201.281    -655.980    -258.435
  H     -198.807    -654.933    -255.201
  H     -200.684    -655.520    -253.684
  H     -203.978    -656.692    -254.930
  H     -201.703    -657.556    -253.034
  H     -203.449    -657.969    -251.397
  H     -204.888    -655.647    -252.045
  H     -203.098    -654.270    -251.075
  H     -203.344    -655.720    -250.092
  P     -205.441    -659.467    -252.378
  C     -206.074    -661.371    -254.061
  O     -205.155    -660.386    -253.664
  O     -207.042    -659.330    -252.380
  O     -204.903    -659.957    -251.066
  H     -207.383    -658.878    -253.170
  H     -205.876    -661.638    -255.107
  H     -207.103    -661.026    -253.977
  H     -205.936    -662.267    -253.443
  H     -197.903    -656.942    -250.669
  H     -199.618    -657.276    -250.722
  H     -198.954    -656.323    -249.417

 3  4  5  6  7  8  9  10  11  12  13  24  28  29  30  31  32 0
 6-311+G(2d,p)
 ****
 33  34 0
 6-311+G(2d,p)
 ****
 1  2  14  15  16  17  18  19  20  21  22  23  25  26  27 0
 3-21G
 ****
 35  36  37  38  39  40  41  42  43  44  45 0
 3-21G
 ****


