%nproc=1
%NoSave
%Mem=1900MB
#P OB98/GEN NMR

erre ene a

0 1
  C     -165.220      -5.900     -36.054
  O     -166.413      -6.447     -35.482
  P     -166.513      -8.047     -35.395
  C     -164.979      -8.369     -33.330
  O     -166.291      -8.488     -33.865
  C     -164.996      -8.369     -31.793
  O     -165.902      -7.346     -31.287
  C     -165.445      -9.703     -31.185
  O     -164.732      -9.887     -29.952
  C     -166.911      -9.459     -30.866
  O     -167.400     -10.389     -29.903
  C     -166.849      -8.000     -30.410
  N     -170.680      -6.074     -27.633
  C     -169.515      -6.656     -27.283
  N     -168.552      -7.167     -28.089
  C     -168.876      -6.985     -29.381
  C     -170.036      -6.416     -29.891
  C     -170.972      -5.945     -28.949
  N     -172.173      -5.370     -29.308
  N     -170.025      -6.451     -31.275
  C     -168.885      -7.039     -31.590
  N     -168.145      -7.350     -30.481
  O     -165.175      -8.535     -36.127
  O     -167.735      -8.613     -36.052
  H     -168.362     -10.216     -29.773
  H     -165.396      -8.918     -36.999
  H     -169.330      -6.734     -26.214
  H     -168.552      -7.264     -32.592
  H     -166.493      -7.898     -29.379
  H     -167.512      -9.560     -31.777
  H     -165.299     -10.575     -31.832
  H     -163.987      -8.122     -31.438
  H     -164.510      -7.443     -33.683
  H     -172.801      -5.090     -28.573
  H     -172.420      -5.314     -30.288
  H     -164.359      -9.187     -33.722
  P     -163.927     -11.265     -29.791
  C     -162.367     -11.128     -31.872
  O     -162.488     -11.024     -30.459
  O     -164.663     -12.256     -30.814
  O     -163.915     -11.804     -28.397
  H     -164.545     -13.182     -30.528
  H     -161.703     -10.335     -32.227
  H     -163.339     -11.023     -32.372
  H     -161.934     -12.094     -32.121
  H     -165.281      -4.832     -36.052
  H     -165.114      -6.250     -37.060
  H     -164.374      -6.210     -35.478

 3  4  5  6  7  8  9  10  11  12  22  25  29  30  31  32 0
 6-311+G(2d,p)
 ****
 33  36  37 0
 6-311+G(2d,p)
 ****
 1  2  13  14  15  16  17  18  19  20  21  23  24  26 0
 3-21G
 ****
 27  28  34  35  38  39  40  41  42  43  44  45  46  47  48 0
 3-21G
 ****


