%nproc=1
%NoSave
%Mem=1900MB
#P OB98/GEN NMR

erre ene a

0 1
  C     -165.689     -68.089      62.033
  O     -165.330     -68.929      63.109
  H     -166.776     -68.113      61.917
  H     -165.228     -68.440      61.103
  H     -165.378     -67.062      62.239
  P     -163.761     -69.080      63.412
  C     -163.558     -68.543      65.924
  O     -163.693     -69.563      64.942
  C     -164.903     -67.856      66.166
  O     -165.907     -68.874      66.399
  C     -164.901     -66.922      67.384
  O     -165.735     -65.795      67.108
  C     -165.545     -67.769      68.467
  O     -166.117     -66.976      69.505
  C     -166.551     -68.579      67.650
  N     -168.308     -70.428      72.056
  C     -168.185     -69.167      71.589
  N     -167.726     -68.765      70.385
  C     -167.429     -69.825      69.612
  C     -167.502     -71.165      69.948
  C     -167.959     -71.455      71.247
  N     -168.058     -72.732      71.745
  N     -167.065     -71.948      68.901
  C     -166.743     -71.098      67.944
  N     -166.927     -69.803      68.339
  O     -162.925     -67.888      63.084
  O     -163.395     -70.417      62.610
  H     -166.296     -67.556      70.275
  H     -164.049     -71.122      62.777
  H     -168.485     -68.377      72.273
  H     -166.359     -71.366      66.964
  H     -167.475     -68.024      67.444
  H     -164.796     -68.426      68.923
  H     -163.904     -66.585      67.665
  H     -165.193     -67.321      65.255
  H     -162.819     -67.803      65.599
  H     -168.396     -72.851      72.687
  H     -167.807     -73.514      71.158
  H     -163.198     -69.011      66.847
  P     -165.105     -64.525      66.361
  C     -167.115     -63.404      65.207
  O     -166.212     -63.362      66.300
  O     -164.416     -64.809      65.069
  O     -164.071     -63.956      67.448
  H     -163.244     -63.689      66.995
  H     -167.798     -62.584      65.277
  H     -167.660     -64.325      65.229
  H     -166.568     -63.335      64.290

 6  7  8  9  10  11  12  13  14  15  25  28  32  33  34  35 0
 6-311+G(2d,p)
 ****
 36  39  40 0
 6-311+G(2d,p)
 ****
 1  2  3  4  5  16  17  18  19  20  21  22  23  24 0
 3-21G
 ****
 26  27  29  30  31  37  38  41  42  43  44  45  46  47 0
 3-21G
 ****
 48 0
 3-21G
 ****


