%nproc=1
%NoSave
%Mem=1900MB
#P OB98/GEN NMR

erre ene a

0 1
  C      -74.995       4.338     -83.379
  O      -73.897       3.457     -83.120
  P      -72.548       4.131     -82.557
  C      -70.735       3.231     -84.194
  O      -71.336       3.140     -82.908
  C      -70.053       1.918     -84.566
  O      -70.996       0.981     -85.118
  C      -68.966       2.056     -85.625
  O      -67.748       2.525     -85.070
  C      -68.825       0.611     -86.090
  O      -67.968      -0.111     -85.190
  C      -70.268       0.089     -85.996
  N      -72.954      -2.771     -89.206
  C      -72.421      -3.087     -87.971
  N      -72.661      -4.338     -87.516
  N      -71.717      -2.258     -87.249
  C      -71.583      -1.033     -87.816
  C      -72.062      -0.601     -89.031
  C      -72.813      -1.540     -89.836
  O      -73.279      -1.322     -90.948
  N      -71.732       0.711     -89.263
  C      -71.078       1.079     -88.179
  N      -70.949       0.050     -87.276
  O      -72.705       3.974     -80.971
  O      -72.367       5.555     -82.965
  H      -67.075       0.278     -85.270
  H      -72.203       4.676     -80.515
  H      -73.481      -3.453     -89.722
  H      -70.685       2.071     -87.996
  H      -70.310      -0.912     -85.553
  H      -68.379       0.531     -87.087
  H      -73.254      -5.004     -87.985
  H      -69.308       2.682     -86.457
  H      -72.308      -4.575     -86.594
  H      -69.626       1.484     -83.651
  H      -69.999       4.038     -84.202
  H      -71.504       3.496     -84.928
  P      -66.699       3.206     -86.077
  C      -64.573       2.588     -84.724
  O      -65.439       3.610     -85.176
  O      -67.391       4.605     -86.431
  O      -66.404       2.401     -87.299
  H      -67.119       4.900     -87.321
  H      -64.362       1.868     -85.519
  H      -65.024       2.073     -83.871
  H      -63.631       3.042     -84.403
  H      -75.826       3.773     -83.747
  H      -74.705       5.064     -84.110
  H      -75.274       4.836     -82.474

 3  4  5  6  7  8  9  10  11  12  23  26  30  31  33  0
 6-311+G(2d,p)
 ****
 35  36  37  38 0
 6-311+G(2d,p)
 ****
 1  2  13  14  15  16  17  18  19  20  21  22  24  25  27  28  29 0
 3-21G
 ****
 32  34  39  40  41  42  43  44  45  46  47  48  49 0
 3-21G
 ****


