%nproc=1
%NoSave
%Mem=1900MB
#P OB98/GEN NMR

erre ene a

0 1
  C      546.042    -375.080     234.022
  O      545.171    -375.710     233.104
  H      546.978    -375.639     234.090
  H      546.259    -374.073     233.662
  H      545.575    -375.007     235.009
  P      544.586    -377.143     233.531
  C      546.391    -378.412     232.154
  O      545.820    -378.166     233.434
  C      546.712    -379.901     231.990
  O      545.468    -380.638     231.881
  C      547.552    -380.206     230.744
  O      548.496    -381.237     231.061
  C      546.526    -380.737     229.752
  O      547.108    -381.582     228.771
  C      545.537    -381.434     230.682
  N      542.721    -384.118     227.369
  C      543.976    -384.294     227.842
  N      544.652    -383.534     228.728
  C      543.880    -382.527     229.172
  C      542.585    -382.216     228.786
  C      542.003    -383.062     227.825
  N      540.740    -382.867     227.313
  N      542.143    -381.082     229.439
  C      543.151    -380.715     230.205
  N      544.224    -381.556     230.079
  O      543.673    -377.532     232.271
  O      543.817    -377.174     234.808
  H      547.532    -382.337     229.229
  H      542.821    -377.061     232.331
  H      544.512    -385.158     227.448
  H      543.160    -379.854     230.860
  H      545.864    -382.448     230.953
  H      546.047    -379.894     229.235
  H      548.080    -379.335     230.360
  H      547.213    -380.254     232.900
  H      547.310    -377.824     232.056
  H      540.423    -383.490     226.586
  H      540.216    -382.054     227.599
  H      545.685    -378.100     231.376
  P      550.047    -380.881     230.850
  C      550.350    -381.425     228.331
  O      550.261    -380.419     229.328
  O      550.764    -382.310     230.917
  O      550.589    -379.951     231.883
  H      551.518    -382.279     231.536
  H      550.491    -380.967     227.374
  H      549.447    -381.999     228.322
  H      551.179    -382.067     228.545

 6  7  8  9  10  11  12  13  14  15  25  28  32  33  34  35 0
 6-311+G(2d,p)
 ****
 36  39  40 0
 6-311+G(2d,p)
 ****
 1  2  3  4  5  16  17  18  19  20  21  22  23  24 0
 3-21G
 ****
 26  27  29  30  31  37  38  41  42  43  44  45  46  47 0
 3-21G
 ****
 48 0
 3-21G
 ****


