%nproc=1
%NoSave
%Mem=1900MB
#P OB98/GEN NMR

erre ene a

0 1
  C     -345.590    -431.103     100.736
  O     -346.584    -430.648      99.840
  H     -344.829    -430.324     100.835
  H     -345.115    -432.004     100.340
  H     -346.017    -431.305     101.722
  P     -347.897    -431.540      99.617
  C     -346.716    -433.261      98.096
  O     -347.410    -433.043      99.318
  C     -347.032    -434.651      97.533
  O     -346.501    -435.651      98.445
  C     -348.529    -434.919      97.360
  O     -348.732    -435.691      96.177
  C     -348.884    -435.745      98.582
  O     -350.020    -436.580      98.362
  C     -347.592    -436.521      98.824
  N     -348.728    -440.139     102.171
  C     -348.941    -440.085     100.805
  N     -349.567    -441.150     100.249
  N     -348.577    -439.080     100.050
  C     -347.941    -438.098     100.738
  C     -347.669    -438.029     102.086
  C     -348.102    -439.144     102.909
  O     -347.954    -439.236     104.129
  N     -347.027    -436.863     102.409
  C     -346.910    -436.221     101.257
  N     -347.457    -436.928     100.212
  O     -348.873    -430.994      98.621
  O     -348.550    -431.653     101.071
  H     -350.075    -437.198      99.121
  H     -349.337    -431.086     101.148
  H     -349.038    -440.930     102.703
  H     -346.441    -435.257     101.121
  H     -347.533    -437.434      98.219
  H     -349.108    -435.080      99.425
  H     -349.851    -441.966     100.768
  H     -349.109    -433.996      97.299
  H     -349.705    -441.146      99.243
  H     -346.496    -434.771      96.583
  H     -345.637    -433.177      98.295
  H     -347.001    -432.488      97.375
  P     -349.212    -434.955      94.835
  C     -351.520    -434.515      95.884
  O     -350.413    -433.947      95.193
  O     -349.466    -435.847      93.666
  O     -347.992    -433.946      94.530
  H     -347.883    -433.863      93.559
  H     -352.253    -433.757      96.068
  H     -351.188    -434.923      96.816
  H     -351.952    -435.292      95.288

 6  7  8  9  10  11  12  13  14  15  26  29  33  34 0
 6-311+G(2d,p)
 ****
 36  38  39  40  41 0
 6-311+G(2d,p)
 ****
 1  2  3  4  5  16  17  18  19  20  21  22  23  24  25 0
 3-21G
 ****
 27  28  30  31  32  35  37  42  43  44  45  46  47 0
 3-21G
 ****
 48  49 0
 3-21G
 ****


