%nproc=1
%NoSave
%Mem=1900MB
#P OB98/GEN NMR

erre ene a

0 1
  C      -76.811     250.826     235.268
  O      -76.347     250.956     236.613
  P      -74.989     250.229     237.048
  C      -74.231     247.902     237.871
  O      -75.324     248.714     237.473
  C      -74.702     246.732     238.748
  O      -75.047     247.223     240.075
  C      -75.929     246.010     238.176
  O      -75.762     244.593     238.100
  C      -77.068     246.497     239.059
  O      -78.174     245.607     239.079
  C      -76.370     246.762     240.397
  N      -77.109     247.728     241.217
  C      -78.342     247.325     241.706
  O      -78.857     246.241     241.418
  N      -79.004     248.226     242.491
  C      -78.596     249.496     242.767
  O      -79.250     250.284     243.441
  C      -77.314     249.897     242.172
  C      -76.638     249.008     241.436
  O      -74.128     250.976     238.010
  O      -74.227     250.027     235.647
  H      -77.881     244.761     239.483
  H      -73.274     250.181     235.798
  H      -79.897     247.934     242.867
  H      -76.969     250.906     242.345
  H      -75.697     249.277     240.972
  H      -76.282     245.841     240.985
  H      -77.428     247.453     238.656
  H      -76.121     246.310     237.143
  H      -73.859     246.037     238.843
  H      -73.519     248.505     238.437
  H      -73.697     247.554     236.980
  P      -75.394     243.795     236.764
  C      -76.676     242.630     234.840
  O      -76.756     243.354     236.050
  O      -74.381     242.711     236.914
  O      -74.828     244.946     235.802
  H      -74.061     244.603     235.309
  H      -77.629     242.730     234.308
  H      -76.513     241.573     235.058
  H      -75.875     243.005     234.203
  H      -77.725     251.371     235.152
  H      -76.981     249.793     235.048
  H      -76.075     251.217     234.597

 3  4  5  6  7  8  9  10  11  12  13  23  28  29  30  31  32 0
 6-311+G(2d,p)
 ****
 33  34 0
 6-311+G(2d,p)
 ****
 1  2  14  15  16  17  18  19  20  21  22  24  25  26  27 0
 3-21G
 ****
 35  36  37  38  39  40  41  42  43  44  45 0
 3-21G
 ****


