%nproc=1
%NoSave
%Mem=1900MB
#P OB98/GEN NMR

erre ene a

0 1
  C      876.885    1653.981     -48.929
  O      878.196    1653.455     -48.913
  H      876.440    1653.770     -49.910
  H      876.914    1655.055     -48.782
  H      876.279    1653.499     -48.167
  P      879.110    1653.679     -47.611
  C      879.025    1651.194     -46.916
  O      878.691    1652.532     -46.567
  C      878.249    1650.196     -46.020
  O      876.829    1650.363     -46.341
  C      878.634    1648.745     -46.297
  O      879.012    1648.034     -45.103
  C      877.465    1648.209     -47.101
  O      877.254    1646.813     -47.012
  C      876.279    1649.052     -46.618
  N      875.185    1649.163     -47.572
  C      874.009    1648.496     -47.266
  O      873.807    1647.819     -46.249
  N      872.996    1648.599     -48.186
  C      873.055    1649.293     -49.371
  O      872.113    1649.372     -50.155
  C      874.322    1649.978     -49.639
  C      875.328    1649.880     -48.762
  O      879.112    1655.063     -47.070
  O      880.566    1653.237     -48.073
  H      878.119    1646.383     -47.162
  H      881.113    1654.022     -48.248
  H      872.131    1648.116     -47.987
  H      874.434    1650.529     -50.563
  H      876.279    1650.370     -48.920
  H      875.884    1648.643     -45.693
  H      877.643    1648.432     -48.179
  H      879.538    1648.690     -46.930
  H      878.396    1650.471     -44.973
  H      880.109    1651.067     -46.768
  H      878.785    1651.010     -47.972
  P      880.489    1647.939     -44.533
  C      880.002    1649.392     -42.420
  O      880.735    1649.216     -43.606
  O      881.533    1647.597     -45.539
  O      880.389    1646.727     -43.473
  H      881.257    1646.281     -43.496
  H      880.308    1650.299     -41.943
  H      880.181    1648.566     -41.764
  H      878.958    1649.445     -42.650

 6  7  8  9  10  11  12  13  14  15  16  26  31  32  33  34  35 0
 6-311+G(2d,p)
 ****
 36  37 0
 6-311+G(2d,p)
 ****
 1  2  3  4  5  17  18  19  20  21  22  23  24  25 0
 3-21G
 ****
 27  28  29  30  38  39  40  41  42  43  44  45 0
 3-21G
 ****


