%nproc=1
%NoSave
%Mem=1900MB
#P OB98/GEN NMR

erre ene a

0 1
  C     -182.655    -141.809    -147.974
  O     -182.630    -140.808    -149.000
  P     -182.634    -141.291    -150.525
  C     -180.703    -139.806    -151.438
  O     -182.095    -140.085    -151.432
  C     -180.428    -138.477    -152.143
  O     -180.799    -137.348    -151.318
  C     -178.964    -138.264    -152.505
  O     -178.624    -138.917    -153.721
  C     -178.925    -136.757    -152.696
  O     -179.436    -136.415    -153.999
  C     -179.876    -136.264    -151.599
  N     -176.730    -132.894    -149.518
  C     -177.234    -132.965    -150.802
  N     -176.852    -131.990    -151.653
  N     -178.042    -133.910    -151.211
  C     -178.356    -134.804    -150.247
  C     -177.917    -134.842    -148.943
  C     -177.012    -133.805    -148.505
  O     -176.520    -133.699    -147.385
  N     -178.446    -135.911    -148.270
  C     -179.219    -136.510    -149.157
  N     -179.184    -135.885    -150.378
  O     -184.195    -141.330    -150.882
  O     -181.983    -142.617    -150.752
  H     -179.429    -135.441    -154.058
  H     -184.360    -141.992    -151.580
  H     -176.105    -132.153    -149.257
  H     -179.819    -137.390    -148.963
  H     -180.470    -135.399    -151.918
  H     -177.908    -136.357    -152.643
  H     -176.272    -131.210    -151.390
  H     -178.305    -138.558    -151.679
  H     -177.240    -132.007    -152.589
  H     -181.033    -138.446    -153.061
  H     -180.155    -140.612    -151.936
  H     -180.339    -139.797    -150.406
  P     -177.267    -139.770    -153.759
  C     -176.542    -139.589    -156.245
  O     -177.157    -140.367    -155.239
  O     -177.620    -141.040    -152.851
  O     -176.062    -139.047    -153.255
  H     -176.819    -141.358    -152.396
  H     -176.413    -140.207    -157.136
  H     -175.562    -139.233    -155.917
  H     -177.178    -138.736    -156.500
  H     -182.649    -141.336    -147.014
  H     -181.794    -142.437    -148.068
  H     -183.541    -142.401    -148.075

 3  4  5  6  7  8  9  10  11  12  23  26  30  31 0
 6-311+G(2d,p)
 ****
 33  35  36  37  38 0
 6-311+G(2d,p)
 ****
 1  2  13  14  15  16  17  18  19  20  21  22  24  25 0
 3-21G
 ****
 27  28  29  32  34  39  40  41  42  43  44  45  46  47  48  49 0
 3-21G
 ****


