%nproc=1
%NoSave
%Mem=1900MB
#P OB98/GEN NMR

erre ene a

0 1
  C      341.500     164.976    -168.995
  O      342.779     165.142    -169.625
  P      344.052     164.239    -169.261
  C      345.927     165.894    -169.897
  O      345.284     164.659    -170.198
  C      347.058     166.196    -170.885
  O      346.537     166.826    -172.072
  C      348.129     167.145    -170.360
  O      348.999     166.485    -169.457
  C      348.784     167.597    -171.661
  O      349.745     166.634    -172.120
  C      347.576     167.664    -172.619
  N      347.106     169.026    -172.832
  C      347.874     169.826    -173.684
  O      348.923     169.394    -174.168
  N      347.449     171.104    -173.944
  C      346.394     171.567    -173.351
  N      346.016     172.839    -173.654
  C      345.607     170.788    -172.376
  C      346.016     169.538    -172.170
  O      343.772     162.771    -169.246
  O      344.508     164.733    -167.807
  H      349.343     165.755    -171.979
  H      344.906     163.982    -167.326
  H      344.752     171.221    -171.880
  H      345.489     168.893    -171.478
  H      347.835     167.227    -173.590
  H      349.308     168.551    -171.558
  H      347.655     168.006    -169.874
  H      347.507     165.240    -171.183
  H      346.571     173.344    -174.331
  H      346.339     165.827    -168.885
  H      345.210     173.293    -173.250
  H      345.178     166.694    -169.919
  P      349.806     167.335    -168.367
  C      352.048     166.920    -169.548
  O      351.310     166.788    -168.346
  O      349.155     167.457    -167.031
  O      349.969     168.774    -169.056
  H      349.975     169.458    -168.359
  H      353.114     166.901    -169.309
  H      351.813     167.860    -170.055
  H      351.815     166.080    -170.209
  H      340.809     165.687    -169.398
  H      341.599     165.132    -167.941
  H      341.139     163.985    -169.177

 3  4  5  6  7  8  9  10  11  12  13  23  27  28  29  30  32 0
 6-311+G(2d,p)
 ****
 34  35 0
 6-311+G(2d,p)
 ****
 1  2  14  15  16  17  18  19  20  21  22  24  25  26 0
 3-21G
 ****
 31  33  36  37  38  39  40  41  42  43  44  45  46 0
 3-21G
 ****


