%nproc=1
%NoSave
%Mem=1900MB
#P OB98/GEN NMR

erre ene a

0 1
  C     -283.136    -129.296    1158.172
  O     -282.017    -130.019    1157.702
  H     -282.967    -128.232    1158.013
  H     -283.293    -129.478    1159.239
  H     -284.038    -129.595    1157.613
  P     -282.028    -131.605    1157.949
  C     -281.980    -132.290    1155.435
  O     -282.739    -132.181    1156.625
  C     -282.032    -133.726    1154.908
  O     -283.405    -134.123    1154.675
  C     -281.308    -133.949    1153.569
  O     -279.913    -134.022    1153.699
  C     -281.920    -135.266    1153.161
  O     -281.346    -136.326    1153.947
  C     -283.403    -135.036    1153.535
  N     -284.200    -134.482    1152.433
  C     -284.943    -135.398    1151.675
  O     -284.900    -136.606    1151.937
  N     -285.673    -134.933    1150.619
  C     -285.700    -133.668    1150.341
  N     -286.456    -133.270    1149.274
  C     -284.943    -132.670    1151.119
  C     -284.232    -133.138    1152.140
  O     -283.156    -131.798    1159.067
  O     -280.714    -132.233    1158.283
  H     -280.423    -136.094    1154.103
  H     -283.358    -132.760    1159.191
  H     -284.983    -131.617    1150.857
  H     -283.663    -132.462    1152.761
  H     -283.886    -135.979    1153.874
  H     -281.754    -135.518    1152.112
  H     -281.595    -133.182    1152.834
  H     -281.628    -134.389    1155.681
  H     -286.907    -133.980    1148.722
  H     -280.939    -132.016    1155.658
  H     -286.405    -132.328    1148.908
  H     -282.362    -131.617    1154.671
  P     -279.038    -134.005    1152.344
  C     -277.887    -131.707    1152.824
  O     -278.763    -132.461    1151.988
  O     -280.094    -134.459    1151.230
  O     -277.821    -134.876    1152.361
  H     -279.667    -134.988    1150.525
  H     -277.812    -130.706    1152.452
  H     -276.918    -132.160    1152.825
  H     -278.274    -131.689    1153.821

 6  7  8  9  10  11  12  13  14  15  16  26  30  31  32  33  35 0
 6-311+G(2d,p)
 ****
 37  38 0
 6-311+G(2d,p)
 ****
 1  2  3  4  5  17  18  19  20  21  22  23  24  25 0
 3-21G
 ****
 27  28  29  34  36  39  40  41  42  43  44  45  46 0
 3-21G
 ****


