%nproc=1
%NoSave
%Mem=1900MB
#P OB98/GEN NMR

erre ene a

0 1
  C      143.131    -940.628     910.789
  O      143.807    -941.888     910.717
  P      144.634    -942.200     909.381
  C      146.937    -941.750     910.513
  O      146.036    -941.424     909.463
  C      148.078    -940.733     910.573
  O      147.611    -939.397     910.867
  C      149.098    -941.034     911.658
  O      149.942    -942.113     911.273
  C      149.813    -939.692     911.761
  O      150.777    -939.545     910.681
  C      148.660    -938.694     911.557
  N      149.627    -935.539     915.476
  C      150.361    -935.852     914.360
  N      150.025    -936.706     913.384
  C      148.818    -937.247     913.589
  C      147.976    -937.031     914.676
  C      148.428    -936.126     915.638
  N      147.704    -935.816     916.782
  N      146.813    -937.784     914.548
  C      146.954    -938.460     913.438
  N      148.142    -938.174     912.821
  O      143.815    -941.409     908.259
  O      144.738    -943.669     909.063
  H      151.101    -938.611     910.727
  H      143.341    -942.027     907.678
  H      151.313    -935.341     914.272
  H      146.249    -939.179     913.045
  H      148.956    -937.842     910.938
  H      150.356    -939.584     912.695
  H      148.608    -941.267     912.597
  H      148.566    -940.722     909.582
  H      147.335    -942.757     910.365
  H      148.145    -935.210     917.480
  H      146.850    -936.319     916.969
  H      146.377    -941.761     911.468
  P      149.431    -943.616     911.575
  C      149.384    -944.059     909.034
  O      148.622    -944.025     910.232
  O      148.241    -943.344     912.615
  O      150.489    -944.556     912.014
  H      147.662    -942.600     912.343
  H      148.728    -944.388     908.217
  H      150.189    -944.788     909.122
  H      149.786    -943.056     908.800
  H      142.622    -940.549     911.727
  H      142.422    -940.558     909.991
  H      143.844    -939.835     910.703

 3  4  5  6  7  8  9  10  11  12  22  25  29  30  31  32 0
 6-311+G(2d,p)
 ****
 33  36  37 0
 6-311+G(2d,p)
 ****
 1  2  13  14  15  16  17  18  19  20  21  23  24  26 0
 3-21G
 ****
 27  28  34  35  38  39  40  41  42  43  44  45  46  47  48 0
 3-21G
 ****


