%nproc=1
%NoSave
%Mem=1900MB
#P OB98/GEN NMR

erre ene a

0 1
  C     -108.882    -222.171     474.382
  O     -110.081    -222.644     474.962
  H     -108.089    -222.896     474.584
  H     -108.599    -221.211     474.820
  H     -108.993    -222.070     473.300
  P     -111.396    -221.733     474.862
  C     -110.603    -219.939     476.541
  O     -110.944    -220.229     475.188
  C     -111.233    -218.609     476.972
  O     -110.987    -218.443     478.395
  C     -110.624    -217.409     476.237
  O     -111.609    -216.573     475.624
  C     -109.711    -216.780     477.286
  O     -109.480    -215.397     477.107
  C     -110.391    -217.150     478.605
  N     -109.485    -217.183     479.746
  C     -109.041    -215.962     480.253
  O     -109.363    -214.860     479.817
  N     -108.180    -216.040     481.320
  C     -107.721    -217.184     481.907
  O     -106.958    -217.190     482.862
  C     -108.205    -218.442     481.316
  C     -109.048    -218.384     480.281
  O     -112.574    -222.215     475.641
  O     -111.714    -221.680     473.292
  H     -110.184    -214.922     477.595
  H     -112.480    -222.255     473.096
  H     -107.864    -215.164     481.703
  H     -107.851    -219.374     481.746
  H     -109.426    -219.295     479.820
  H     -111.191    -216.442     478.842
  H     -108.736    -217.280     477.234
  H     -110.014    -217.738     475.387
  H     -112.317    -218.668     476.829
  H     -109.512    -219.886     476.608
  H     -110.957    -220.747     477.191
  P     -112.019    -216.621     474.083
  C     -110.652    -214.581     473.129
  O     -110.830    -215.990     473.222
  O     -113.402    -216.147     473.766
  O     -111.945    -218.182     473.710
  H     -112.625    -218.344     473.030
  H     -109.806    -214.369     472.510
  H     -110.489    -214.177     474.106
  H     -111.527    -214.138     472.701

 6  7  8  9  10  11  12  13  14  15  16  26  31  32  33  34  35 0
 6-311+G(2d,p)
 ****
 36  37 0
 6-311+G(2d,p)
 ****
 1  2  3  4  5  17  18  19  20  21  22  23  24  25 0
 3-21G
 ****
 27  28  29  30  38  39  40  41  42  43  44  45 0
 3-21G
 ****


