%nproc=1
%NoSave
%Mem=1900MB
#P OB98/GEN NMR

erre ene a

0 1
  C       91.744     -44.693      67.465
  O       90.830     -45.600      66.872
  P       91.244     -46.444      65.573
  C       89.785     -45.074      63.959
  O       91.109     -45.450      64.320
  C       89.617     -45.086      62.441
  O       90.503     -44.096      61.867
  C       89.954     -46.429      61.804
  O       89.070     -46.652      60.701
  C       91.359     -46.244      61.256
  O       91.609     -47.128      60.152
  C       91.350     -44.752      60.903
  N       94.873     -41.987      58.392
  C       93.625     -42.375      58.050
  N       92.754     -43.131      58.754
  C       93.268     -43.444      59.955
  C       94.523     -43.117      60.446
  C       95.350     -42.352      59.603
  N       96.618     -41.948      59.962
  N       94.706     -43.644      61.711
  C       93.576     -44.258      61.982
  N       92.671     -44.158      60.958
  O       90.533     -47.744      65.412
  O       92.824     -46.644      65.709
  H       91.175     -46.737      59.366
  H       93.082     -47.533      65.401
  H       93.280     -42.038      57.077
  H       93.366     -44.796      62.894
  H       90.931     -44.577      59.906
  H       92.092     -46.467      62.040
  H       89.891     -47.264      62.510
  H       88.590     -44.787      62.201
  H       89.599     -44.064      64.334
  H       97.088     -41.303      59.346
  H       96.903     -42.071      60.924
  H       89.071     -45.756      64.434
  P       88.364     -48.099      60.648
  C       90.042     -48.982      58.865
  O       89.522     -49.098      60.169
  O       87.104     -48.080      59.848
  O       88.163     -48.405      62.208
  H       88.813     -47.914      62.758
  H       90.788     -49.768      58.713
  H       90.532     -48.013      58.738
  H       89.249     -49.099      58.122
  H       91.287     -44.230      68.314
  H       92.015     -43.943      66.752
  H       92.620     -45.222      67.776

 3  4  5  6  7  8  9  10  11  12  22  25  29  30  31  32 0
 6-311+G(2d,p)
 ****
 33  36  37 0
 6-311+G(2d,p)
 ****
 1  2  13  14  15  16  17  18  19  20  21  23  24  26 0
 3-21G
 ****
 27  28  34  35  38  39  40  41  42  43  44  45  46  47  48 0
 3-21G
 ****


