%nproc=1
%NoSave
%Mem=1900MB
#P OB98/GEN NMR

erre ene a

0 1
  C      164.189     217.387     365.578
  O      164.920     216.969     366.718
  H      164.135     218.478     365.577
  H      163.175     216.980     365.611
  H      164.694     217.054     364.667
  P      165.019     215.385     366.966
  C      163.062     215.261     368.689
  O      163.518     214.977     367.376
  C      161.546     215.395     368.701
  O      161.109     216.420     367.778
  C      160.795     214.133     368.279
  O      160.742     213.142     369.301
  C      159.425     214.719     367.993
  O      158.755     215.018     369.231
  C      159.821     216.013     367.237
  N      159.900     215.832     365.787
  C      158.692     215.588     365.117
  O      157.633     215.533     365.735
  N      158.727     215.381     363.760
  C      159.855     215.435     363.121
  N      159.821     215.218     361.775
  C      161.144     215.696     363.780
  C      161.099     215.884     365.100
  O      165.807     215.279     368.353
  O      165.608     214.584     365.852
  H      159.382     215.521     369.776
  H      165.793     214.340     368.677
  H      162.064     215.719     363.210
  H      162.006     216.079     365.658
  H      159.108     216.818     367.457
  H      158.774     214.046     367.431
  H      161.205     213.713     367.353
  H      161.242     215.713     369.708
  H      158.933     214.980     361.361
  H      163.524     216.208     369.014
  H      160.654     215.088     361.221
  H      163.368     214.471     369.375
  P      160.562     211.613     368.832
  C      157.964     211.684     369.042
  O      159.097     211.496     368.198
  O      160.430     210.826     370.220
  O      161.674     211.083     367.986
  H      160.835     209.941     370.158
  H      157.069     211.573     368.467
  H      157.995     212.665     369.468
  H      157.977     210.955     369.825

 6  7  8  9  10  11  12  13  14  15  16  26  30  31  32  33  35 0
 6-311+G(2d,p)
 ****
 37  38 0
 6-311+G(2d,p)
 ****
 1  2  3  4  5  17  18  19  20  21  22  23  24  25 0
 3-21G
 ****
 27  28  29  34  36  39  40  41  42  43  44  45  46 0
 3-21G
 ****


