%nproc=1
%NoSave
%Mem=1900MB
#P OB98/GEN NMR

erre ene a

0 1
  C      -78.491     -72.006      81.271
  O      -78.645     -71.826      82.668
  P      -80.027     -72.191      83.403
  C      -80.349     -69.693      83.976
  O      -80.895     -70.845      83.347
  C      -80.690     -68.448      83.159
  O      -80.191     -68.599      81.816
  C      -82.183     -68.173      83.021
  O      -82.712     -67.616      84.213
  C      -82.193     -67.252      81.805
  O      -81.836     -65.915      82.188
  C      -81.074     -67.861      80.936
  N      -81.585     -68.715      79.868
  C      -81.469     -68.222      78.566
  O      -80.947     -67.129      78.345
  N      -81.913     -69.000      77.526
  C      -82.452     -70.156      77.765
  N      -82.811     -70.912      76.692
  C      -82.646     -70.688      79.125
  C      -82.191     -69.928      80.118
  O      -79.875     -72.779      84.764
  O      -80.791     -73.138      82.370
  H      -82.607     -65.539      82.652
  H      -80.571     -74.097      82.475
  H      -83.113     -71.651      79.274
  H      -82.277     -70.255      81.145
  H      -80.463     -67.067      80.490
  H      -83.162     -67.208      81.299
  H      -82.721     -69.097      82.785
  H      -80.182     -67.587      83.618
  H      -82.502     -70.587      75.784
  H      -79.261     -69.802      84.024
  H      -82.961     -71.910      76.776
  H      -80.742     -69.617      84.994
  P      -83.797     -68.483      85.015
  C      -85.677     -66.724      84.697
  O      -85.228     -68.041      84.433
  O      -83.753     -67.855      86.487
  O      -83.534     -69.951      85.018
  H      -83.233     -68.425      87.082
  H      -86.530     -66.512      84.047
  H      -84.886     -65.996      84.490
  H      -85.999     -66.641      85.738
  H      -77.506     -71.707      80.979
  H      -79.213     -71.410      80.753
  H      -78.638     -73.037      81.026

 3  4  5  6  7  8  9  10  11  12  13  23  27  28  29  30  32 0
 6-311+G(2d,p)
 ****
 34  35 0
 6-311+G(2d,p)
 ****
 1  2  14  15  16  17  18  19  20  21  22  24  25  26 0
 3-21G
 ****
 31  33  36  37  38  39  40  41  42  43  44  45  46 0
 3-21G
 ****


