%nproc=1
%NoSave
%Mem=1900MB
#P OB98/GEN NMR

erre ene a

0 1
  C     -301.026    -554.742    -533.130
  O     -300.758    -554.916    -534.524
  P     -300.017    -556.255    -534.999
  C     -301.520    -557.322    -536.812
  O     -300.375    -556.517    -536.543
  C     -301.979    -557.139    -538.261
  O     -302.931    -556.044    -538.326
  C     -300.865    -556.779    -539.257
  O     -300.162    -557.839    -539.896
  C     -301.661    -556.063    -540.351
  O     -302.236    -557.032    -541.251
  C     -302.771    -555.352    -539.583
  N     -302.520    -550.726    -541.762
  C     -302.837    -551.939    -542.255
  N     -302.878    -553.121    -541.608
  C     -302.563    -552.972    -540.315
  C     -302.209    -551.796    -539.669
  C     -302.195    -550.627    -540.449
  N     -301.863    -549.386    -539.946
  N     -301.947    -552.034    -538.330
  C     -302.106    -553.335    -538.183
  N     -302.497    -553.943    -539.348
  O     -300.168    -557.437    -534.096
  O     -298.484    -555.794    -535.080
  H     -302.418    -556.558    -542.079
  H     -297.919    -556.528    -534.779
  H     -303.094    -551.972    -543.312
  H     -301.952    -553.874    -537.255
  H     -303.735    -555.401    -540.102
  H     -301.030    -555.414    -540.961
  H     -300.151    -556.080    -538.804
  H     -302.496    -558.053    -538.600
  H     -302.325    -557.044    -536.132
  H     -301.832    -548.612    -540.586
  H     -301.564    -549.309    -538.984
  H     -301.256    -558.361    -536.578
  P     -298.701    -558.296    -539.396
  C     -299.452    -560.802    -539.265
  O     -298.573    -559.838    -539.813
  O     -298.397    -558.005    -537.969
  O     -297.737    -557.559    -540.444
  H     -297.798    -557.894    -541.350
  H     -299.339    -561.739    -539.822
  H     -300.481    -560.474    -539.331
  H     -299.176    -560.987    -538.216
  H     -301.521    -553.806    -532.976
  H     -300.105    -554.752    -532.586
  H     -301.653    -555.538    -532.785

 3  4  5  6  7  8  9  10  11  12  22  25  29  30  31  32 0
 6-311+G(2d,p)
 ****
 33  36  37 0
 6-311+G(2d,p)
 ****
 1  2  13  14  15  16  17  18  19  20  21  23  24  26 0
 3-21G
 ****
 27  28  34  35  38  39  40  41  42  43  44  45  46  47  48 0
 3-21G
 ****


