%nproc=1
%NoSave
%Mem=1900MB
#P OB98/GEN NMR

erre ene a

0 1
  C        8.310       0.027     -27.082
  O        9.518      -0.143     -26.371
  H        8.116      -0.877     -27.665
  H        8.388       0.876     -27.765
  H        7.483       0.183     -26.386
  P       10.022       1.099     -25.491
  C       12.156       1.784     -26.802
  O       11.617       1.157     -25.648
  C       13.567       1.264     -27.055
  O       14.456       1.729     -26.016
  C       13.681      -0.254     -27.037
  O       13.230      -0.841     -28.244
  C       15.175      -0.427     -26.821
  O       15.901      -0.340     -28.057
  C       15.517       0.760     -25.894
  N       15.716       0.338     -24.512
  C       16.947      -0.248     -24.231
  O       17.824      -0.411     -25.078
  N       17.125      -0.679     -22.945
  C       16.199      -0.617     -21.946
  O       16.395      -1.089     -20.833
  C       14.921       0.025     -22.296
  C       14.737       0.458     -23.546
  O        9.804       0.590     -23.989
  O        9.319       2.388     -25.757
  H        9.003       1.000     -23.612
  H       15.613      -1.103     -28.595
  H       18.006      -1.116     -22.726
  H       14.166       0.096     -21.524
  H       13.796       0.916     -23.833
  H       16.436       1.255     -26.231
  H       15.408      -1.399     -26.386
  H       13.149      -0.665     -26.172
  H       13.919       1.667     -28.015
  H       12.198       2.867     -26.644
  H       11.504       1.578     -27.657
  P       12.734      -2.366     -28.215
  C       14.824      -3.611     -29.206
  O       13.511      -3.120     -29.398
  O       11.240      -2.217     -28.762
  O       12.855      -3.011     -26.877
  H       11.151      -1.526     -29.441
  H       15.165      -4.078     -30.106
  H       14.824      -4.327     -28.410
  H       15.475      -2.800     -28.956

 6  7  8  9  10  11  12  13  14  15  16  27  31  32  33  34  35 0
 6-311+G(2d,p)
 ****
 36  37 0
 6-311+G(2d,p)
 ****
 1  2  3  4  5  17  18  19  20  21  22  23  24  25 0
 3-21G
 ****
 26  28  29  30  38  39  40  41  42  43  44  45 0
 3-21G
 ****


