%nproc=1
%NoSave
%Mem=1900MB
#P OB98/GEN NMR

erre ene a

0 1
  C      364.415    -582.864    -296.230
  O      364.171    -581.560    -295.700
  P      362.704    -580.931    -295.831
  C      362.064    -581.088    -293.343
  O      361.790    -581.548    -294.662
  C      360.771    -580.645    -292.644
  O      359.928    -581.770    -292.320
  C      361.015    -579.930    -291.325
  O      361.499    -578.618    -291.551
  C      359.650    -580.025    -290.678
  O      358.780    -578.993    -291.161
  C      359.153    -581.408    -291.152
  N      359.226    -582.435    -290.121
  C      357.998    -582.875    -289.608
  O      356.946    -582.378    -290.001
  N      358.008    -583.861    -288.656
  C      359.131    -584.363    -288.245
  N      359.077    -585.334    -287.300
  C      360.440    -583.910    -288.759
  C      360.418    -582.949    -289.680
  O      362.105    -580.965    -297.194
  O      362.922    -579.418    -295.341
  H      357.984    -579.005    -290.590
  H      362.281    -578.837    -295.800
  H      361.353    -584.360    -288.380
  H      361.331    -582.570    -290.098
  H      358.111    -581.350    -291.485
  H      359.700    -579.910    -289.585
  H      361.751    -580.494    -290.724
  H      360.226    -579.983    -293.329
  H      358.155    -585.607    -286.967
  H      362.769    -580.255    -293.384
  H      359.893    -585.823    -286.947
  H      362.555    -581.895    -292.782
  P      362.328    -577.906    -290.371
  C      364.700    -578.473    -291.263
  O      363.733    -578.671    -290.246
  O      361.544    -578.375    -289.054
  O      362.410    -576.416    -290.448
  H      361.572    -577.666    -288.383
  H      365.683    -578.775    -290.878
  H      364.754    -577.414    -291.549
  H      364.457    -579.076    -292.135
  H      365.437    -583.132    -296.061
  H      364.216    -582.865    -297.281
  H      363.775    -583.572    -295.745

 3  4  5  6  7  8  9  10  11  12  13  23  27  28  29  30  32 0
 6-311+G(2d,p)
 ****
 34  35 0
 6-311+G(2d,p)
 ****
 1  2  14  15  16  17  18  19  20  21  22  24  25  26 0
 3-21G
 ****
 31  33  36  37  38  39  40  41  42  43  44  45  46 0
 3-21G
 ****


