%nproc=1
%NoSave
%Mem=1900MB
#P OB98/GEN NMR

erre ene a

0 1
  C      204.318    -301.718     -18.721
  O      203.834    -302.258     -17.510
  H      203.915    -300.710     -18.840
  H      203.980    -302.334     -19.559
  H      205.410    -301.661     -18.726
  P      204.592    -303.513     -16.870
  C      204.685    -306.057     -17.299
  O      204.324    -304.782     -17.818
  C      204.477    -307.171     -18.327
  O      205.361    -306.985     -19.453
  C      204.798    -308.553     -17.757
  O      203.751    -309.170     -17.034
  C      205.128    -309.341     -19.021
  O      203.933    -309.863     -19.627
  C      205.766    -308.282     -19.925
  N      209.888    -311.287     -20.219
  C      208.556    -311.643     -20.135
  N      208.296    -312.970     -20.062
  N      207.578    -310.777     -20.106
  C      207.996    -309.488     -20.090
  C      209.285    -309.014     -20.154
  C      210.358    -309.984     -20.243
  O      211.556    -309.720     -20.308
  N      209.319    -307.640     -20.117
  C      208.060    -307.290     -19.955
  N      207.214    -308.376     -19.959
  O      203.714    -303.861     -15.574
  O      206.025    -303.278     -16.504
  H      203.425    -309.116     -19.995
  H      204.269    -304.302     -14.905
  H      210.597    -311.999     -20.266
  H      207.702    -306.270     -19.856
  H      205.414    -308.369     -20.958
  H      205.774    -310.197     -18.808
  H      209.018    -313.663     -19.963
  H      205.698    -308.509     -17.137
  H      207.371    -313.255     -19.736
  H      203.450    -307.119     -18.710
  H      204.054    -306.230     -16.426
  H      205.722    -306.046     -16.953
  P      204.068    -309.958     -15.676
  C      205.045    -312.296     -15.081
  O      204.690    -311.377     -16.093
  O      202.610    -310.324     -15.130
  O      204.859    -309.189     -14.676
  H      202.321    -309.667     -14.469
  H      205.441    -313.184     -15.528
  H      204.179    -312.543     -14.504
  H      205.784    -311.857     -14.444

 6  7  8  9  10  11  12  13  14  15  26  29  33  34 0
 6-311+G(2d,p)
 ****
 36  38  39  40  41 0
 6-311+G(2d,p)
 ****
 1  2  3  4  5  16  17  18  19  20  21  22  23  24  25 0
 3-21G
 ****
 27  28  30  31  32  35  37  42  43  44  45  46  47 0
 3-21G
 ****
 48  49 0
 3-21G
 ****


