%nproc=1
%NoSave
%Mem=1900MB
#P OB98/GEN NMR

erre ene a

0 1
  C     -328.902     151.378     384.364
  O     -328.025     150.253     384.287
  P     -326.906     150.069     385.421
  C     -327.541     147.685     386.156
  O     -326.561     148.507     385.534
  C     -327.299     146.211     385.826
  O     -327.841     145.858     384.538
  C     -325.828     145.841     385.760
  O     -325.262     145.769     387.059
  C     -325.882     144.525     385.001
  O     -326.196     143.435     385.881
  C     -327.049     144.765     384.017
  N     -326.612     145.024     382.657
  C     -326.318     143.897     381.881
  O     -326.398     142.770     382.369
  N     -325.926     144.079     380.577
  C     -325.828     145.280     380.096
  N     -325.441     145.401     378.797
  C     -326.118     146.493     380.883
  C     -326.493     146.294     382.143
  O     -327.180     150.757     386.717
  O     -325.589     150.665     384.719
  H     -325.537     143.474     386.605
  H     -325.007     151.037     385.408
  H     -326.027     147.473     380.434
  H     -326.720     147.131     382.796
  H     -327.712     143.888     383.997
  H     -324.924     144.290     384.525
  H     -325.286     146.590     385.163
  H     -327.801     145.602     386.593
  H     -325.236     144.553     378.283
  H     -328.535     147.982     385.815
  H     -325.386     146.288     378.317
  H     -327.511     147.855     387.237
  P     -323.994     146.695     387.371
  C     -325.027     148.798     388.478
  O     -324.336     147.577     388.662
  O     -324.025     147.762     386.174
  O     -322.683     145.972     387.416
  H     -323.113     148.012     385.934
  H     -325.453     149.106     389.439
  H     -325.839     148.692     387.753
  H     -324.330     149.570     388.139
  H     -329.584     151.355     383.540
  H     -328.328     152.281     384.328
  H     -329.450     151.341     385.282

 3  4  5  6  7  8  9  10  11  12  13  23  27  28  29  30  32 0
 6-311+G(2d,p)
 ****
 34  35 0
 6-311+G(2d,p)
 ****
 1  2  14  15  16  17  18  19  20  21  22  24  25  26 0
 3-21G
 ****
 31  33  36  37  38  39  40  41  42  43  44  45  46 0
 3-21G
 ****


