%nproc=1
%NoSave
%Mem=1900MB
#P OB98/GEN NMR

erre ene a

0 1
  C     -542.946     337.476    -518.612
  O     -542.384     337.440    -519.906
  P     -540.924     336.822    -520.183
  C     -539.870     339.090    -520.756
  O     -540.235     337.802    -521.244
  C     -538.724     339.687    -521.573
  O     -537.532     338.858    -521.439
  C     -539.018     339.836    -523.075
  O     -538.332     341.001    -523.523
  C     -538.354     338.589    -523.651
  O     -538.110     338.697    -525.057
  C     -537.116     338.479    -522.765
  N     -536.532     337.131    -522.799
  C     -535.174     337.045    -523.127
  O     -534.551     338.060    -523.448
  N     -534.580     335.815    -523.135
  C     -535.294     334.747    -522.936
  N     -534.657     333.557    -522.958
  C     -536.761     334.793    -522.710
  C     -537.302     335.996    -522.646
  O     -540.924     335.374    -520.561
  O     -540.126     337.123    -518.840
  H     -538.985     338.719    -525.511
  H     -540.392     336.493    -518.124
  H     -537.329     333.876    -522.608
  H     -538.371     336.132    -522.483
  H     -536.341     339.205    -523.086
  H     -539.012     337.721    -523.499
  H     -540.070     339.898    -523.321
  H     -538.476     340.676    -521.155
  H     -533.647     333.564    -523.094
  H     -539.543     338.978    -519.719
  H     -535.099     332.673    -522.729
  H     -540.747     339.757    -520.763
  P     -538.916     341.924    -524.700
  C     -536.854     341.296    -526.069
  O     -537.677     342.352    -525.624
  O     -539.785     343.058    -524.255
  O     -539.727     340.897    -525.626
  H     -540.313     341.376    -526.226
  H     -536.229     341.651    -526.907
  H     -537.459     340.457    -526.444
  H     -536.206     340.965    -525.270
  H     -543.916     337.925    -518.657
  H     -542.316     338.051    -517.965
  H     -543.032     336.479    -518.233

 3  4  5  6  7  8  9  10  11  12  13  23  27  28  29  30  32 0
 6-311+G(2d,p)
 ****
 34  35 0
 6-311+G(2d,p)
 ****
 1  2  14  15  16  17  18  19  20  21  22  24  25  26 0
 3-21G
 ****
 31  33  36  37  38  39  40  41  42  43  44  45  46 0
 3-21G
 ****


