%nproc=1
%NoSave
%Mem=1900MB
#P OB98/GEN NMR

erre ene a

0 1
  C      -54.555     453.377    -257.580
  O      -55.380     454.478    -257.229
  P      -55.228     455.821    -258.102
  C      -54.335     457.888    -256.800
  O      -54.030     456.647    -257.423
  C      -55.073     457.658    -255.480
  O      -54.467     456.574    -254.758
  C      -55.045     458.850    -254.535
  O      -55.973     459.833    -254.944
  C      -55.395     458.183    -253.207
  O      -56.817     458.102    -253.032
  C      -54.768     456.778    -253.358
  N      -53.588     456.598    -252.530
  C      -53.727     455.697    -251.466
  O      -54.810     455.129    -251.267
  N      -52.658     455.493    -250.624
  C      -51.548     456.143    -250.834
  N      -50.517     455.892    -249.978
  C      -51.372     457.111    -251.927
  C      -52.419     457.299    -252.725
  O      -56.529     456.661    -257.706
  O      -55.112     455.601    -259.575
  H      -56.953     457.573    -252.215
  H      -56.782     457.272    -258.427
  H      -50.425     457.621    -252.055
  H      -52.376     457.995    -253.552
  H      -55.499     456.004    -253.077
  H      -55.006     458.753    -252.354
  H      -54.036     459.273    -254.483
  H      -56.114     457.375    -255.708
  H      -50.672     455.221    -249.232
  H      -54.975     458.488    -257.460
  H      -49.611     456.325    -250.068
  H      -53.405     458.438    -256.629
  P      -55.674     461.359    -254.556
  C      -57.293     461.961    -252.661
  O      -56.014     461.461    -252.992
  O      -56.904     462.129    -255.224
  O      -54.354     461.918    -254.982
  H      -56.769     463.093    -255.130
  H      -57.457     461.822    -251.592
  H      -58.074     461.413    -253.207
  H      -57.347     463.023    -252.895
  H      -54.757     452.556    -256.924
  H      -53.527     453.659    -257.492
  H      -54.759     453.086    -258.589

 3  4  5  6  7  8  9  10  11  12  13  21  23  27  28  29  30  32 0
 6-311+G(2d,p)
 ****
 34  35 0
 6-311+G(2d,p)
 ****
 1  2  14  15  16  17  18  19  20  22  24  25  26 0
 3-21G
 ****
 31  33  36  37  38  39  40  41  42  43  44  45  46 0
 3-21G
 ****


