%nproc=1
%NoSave
%Mem=1900MB
#P OB98/GEN NMR

erre ene a

0 1
  C     -209.384    -138.687     109.305
  O     -208.417    -138.083     110.169
  P     -208.975    -137.025     111.247
  C     -207.867    -136.212     113.457
  O     -207.713    -136.468     112.068
  C     -206.525    -135.846     114.092
  O     -205.665    -136.993     114.175
  C     -205.727    -134.807     113.315
  O     -206.200    -133.490     113.563
  C     -204.338    -135.001     113.901
  O     -204.224    -134.280     115.142
  C     -204.296    -136.517     114.155
  N     -199.731    -138.094     112.609
  C     -200.084    -137.352     113.721
  N     -199.075    -137.007     114.554
  N     -201.308    -136.986     113.994
  C     -202.213    -137.433     113.088
  C     -201.991    -138.169     111.948
  C     -200.626    -138.541     111.643
  O     -200.256    -139.169     110.656
  N     -203.161    -138.436     111.286
  C     -204.095    -137.887     112.037
  N     -203.567    -137.252     113.137
  O     -209.726    -137.959     112.310
  O     -209.883    -135.992     110.668
  H     -203.361    -134.521     115.534
  H     -210.434    -137.456     112.755
  H     -198.772    -138.342     112.443
  H     -205.159    -137.920     111.836
  H     -203.856    -136.755     115.131
  H     -203.544    -134.629     113.244
  H     -198.121    -137.314     114.444
  H     -205.714    -135.042     112.242
  H     -199.319    -136.493     115.395
  H     -206.718    -135.482     115.111
  H     -208.276    -137.092     113.954
  H     -208.596    -135.403     113.590
  P     -207.104    -132.807     112.425
  C     -209.376    -131.554     112.435
  O     -208.415    -132.281     113.177
  O     -207.618    -134.058     111.573
  O     -206.384    -131.811     111.579
  H     -207.783    -133.794     110.647
  H     -209.553    -132.017     111.461
  H     -209.035    -130.527     112.298
  H     -210.317    -131.543     112.992
  H     -208.893    -139.366     108.639
  H     -209.880    -137.927     108.738
  H     -210.103    -139.220     109.892

 3  4  5  6  7  8  9  10  11  12  23  26  30  31  33  0
 6-311+G(2d,p)
 ****
 35  36  37  38 0
 6-311+G(2d,p)
 ****
 1  2  13  14  15  16  17  18  19  20  21  22  24  25  27  28  29 0
 3-21G
 ****
 32  34  39  40  41  42  43  44  45  46  47  48  49 0
 3-21G
 ****


