%nproc=1
%NoSave
%Mem=1900MB
#P OB98/GEN NMR

erre ene a

0 1
  C       16.990    -206.118    -129.998
  O       16.766    -207.343    -129.330
  H       17.000    -205.293    -129.282
  H       17.963    -206.162    -130.497
  H       16.215    -205.950    -130.750
  P       15.380    -207.492    -128.535
  C       14.340    -206.330    -126.456
  O       15.484    -206.491    -127.285
  C       14.724    -205.560    -125.198
  O       15.573    -206.372    -124.355
  C       15.508    -204.279    -125.460
  O       14.665    -203.199    -125.820
  C       16.140    -204.055    -124.097
  O       15.162    -203.512    -123.191
  C       16.512    -205.486    -123.687
  N       21.474    -204.833    -122.623
  C       20.359    -204.297    -122.085
  N       19.074    -204.519    -122.428
  C       18.996    -205.396    -123.440
  C       20.047    -206.019    -124.095
  C       21.340    -205.712    -123.642
  N       22.482    -206.246    -124.199
  N       19.577    -206.831    -125.110
  C       18.265    -206.722    -125.043
  N       17.865    -205.860    -124.057
  O       15.490    -208.937    -127.854
  O       14.143    -207.339    -129.356
  H       14.875    -202.660    -123.570
  H       14.601    -209.266    -127.623
  H       20.520    -203.595    -121.271
  H       17.566    -207.245    -125.682
  H       16.411    -205.653    -122.608
  H       16.977    -203.354    -124.124
  H       16.302    -204.436    -126.203
  H       13.804    -205.346    -124.636
  H       13.958    -207.315    -126.175
  H       23.357    -205.822    -123.927
  H       22.396    -206.781    -125.050
  H       13.567    -205.791    -127.012
  P       15.260    -202.105    -126.834
  C       17.118    -200.291    -126.679
  O       16.350    -201.281    -125.998
  O       14.054    -201.071    -127.002
  O       15.725    -202.655    -128.142
  H       14.108    -200.611    -127.861
  H       17.797    -199.831    -125.992
  H       16.463    -199.548    -127.084
  H       17.670    -200.751    -127.472

 6  7  8  9  10  11  12  13  14  15  25  28  32  33  34  35 0
 6-311+G(2d,p)
 ****
 36  39  40 0
 6-311+G(2d,p)
 ****
 1  2  3  4  5  16  17  18  19  20  21  22  23  24 0
 3-21G
 ****
 26  27  29  30  31  37  38  41  42  43  44  45  46  47 0
 3-21G
 ****
 48 0
 3-21G
 ****


