%nproc=1
%NoSave
%Mem=1900MB
#P OB98/GEN NMR

erre ene a

0 1
  C      133.586    -364.767    -145.550
  O      133.482    -365.245    -144.199
  P      134.733    -365.847    -143.384
  C      134.599    -368.301    -144.171
  O      135.348    -367.094    -144.193
  C      135.274    -369.408    -144.994
  O      134.435    -370.604    -145.006
  C      135.565    -369.029    -146.451
  O      136.838    -369.608    -146.778
  C      134.425    -369.722    -147.187
  O      134.666    -369.900    -148.582
  C      134.354    -371.028    -146.383
  N      133.156    -371.837    -146.614
  C      133.141    -372.674    -147.734
  O      134.067    -372.689    -148.536
  N      132.035    -373.479    -147.934
  C      131.047    -373.443    -147.098
  N      129.989    -374.276    -147.347
  C      131.019    -372.566    -145.913
  C      132.091    -371.805    -145.731
  O      134.413    -366.166    -141.954
  O      135.878    -364.732    -143.466
  H      136.377    -364.723    -142.628
  H      133.904    -370.365    -148.961
  H      130.179    -372.577    -145.234
  H      132.168    -371.151    -144.865
  H      135.247    -371.636    -146.594
  H      133.517    -369.122    -147.084
  H      135.617    -367.950    -146.624
  H      136.205    -369.692    -144.477
  H      130.051    -374.868    -148.167
  H      133.608    -368.102    -144.598
  H      129.176    -374.335    -146.755
  H      134.456    -368.620    -143.134
  P      138.171    -368.730    -146.652
  C      138.862    -368.879    -149.168
  O      138.456    -368.062    -148.089
  O      139.312    -369.860    -146.592
  O      138.258    -367.836    -145.457
  H      140.083    -369.505    -146.123
  H      138.307    -368.588    -150.064
  H      138.696    -369.945    -148.971
  H      139.931    -368.713    -149.346
  H      132.630    -364.416    -145.879
  H      133.912    -365.563    -146.186
  H      134.293    -363.965    -145.591

 3  4  5  6  7  8  9  10  11  12  13  24  27  28  29  30  32 0
 6-311+G(2d,p)
 ****
 34  35 0
 6-311+G(2d,p)
 ****
 1  2  14  15  16  17  18  19  20  21  22  23  25  26 0
 3-21G
 ****
 31  33  36  37  38  39  40  41  42  43  44  45  46 0
 3-21G
 ****


