%nproc=1
%NoSave
%Mem=1900MB
#P OB98/GEN NMR

erre ene a

0 1
  C      122.353      18.246      87.784
  O      122.503      16.994      87.152
  H      121.646      18.137      88.610
  H      121.951      18.970      87.071
  H      123.303      18.611      88.181
  P      123.785      16.748      86.229
  C      125.165      15.283      87.845
  O      125.058      16.538      87.186
  C      126.518      15.121      88.538
  O      127.555      14.964      87.546
  C      126.895      16.342      89.381
  O      126.394      16.318      90.707
  C      128.420      16.274      89.370
  O      128.914      15.457      90.444
  C      128.736      15.629      88.016
  N      132.662      18.280      86.094
  C      132.608      17.530      87.254
  N      133.730      17.522      88.006
  N      131.545      16.872      87.636
  C      130.473      17.057      86.834
  C      130.401      17.792      85.672
  C      131.603      18.457      85.216
  O      131.707      19.119      84.189
  N      129.131      17.783      85.146
  C      128.423      17.117      86.037
  N      129.207      16.590      87.035
  O      124.068      18.193      85.591
  O      123.617      15.720      85.151
  H      129.861      15.663      90.569
  H      124.456      18.087      84.703
  H      133.516      18.740      85.837
  H      127.353      16.949      85.985
  H      129.516      14.864      88.111
  H      128.855      17.267      89.504
  H      134.544      18.078      87.804
  H      126.592      17.266      88.881
  H      133.671      17.143      88.953
  H      126.508      14.205      89.140
  H      125.044      14.518      87.077
  H      124.350      15.160      88.563
  P      126.209      17.670      91.538
  C      123.754      17.927      90.646
  O      125.019      18.505      90.885
  O      127.511      18.514      91.149
  O      126.072      17.501      93.016
  H      128.192      18.436      91.843
  H      123.106      18.656      90.205
  H      123.335      17.591      91.571
  H      123.861      17.096      89.980

 6  7  8  9  10  11  12  13  14  15  26  29  33  34 0
 6-311+G(2d,p)
 ****
 36  38  39  40  41 0
 6-311+G(2d,p)
 ****
 1  2  3  4  5  16  17  18  19  20  21  22  23  24  25 0
 3-21G
 ****
 27  28  30  31  32  35  37  42  43  44  45  46  47 0
 3-21G
 ****
 48  49 0
 3-21G
 ****


