%nproc=1
%NoSave
%Mem=1900MB
#P OB98/GEN NMR

erre ene a

0 1
  C      212.387    -184.651     -38.548
  O      213.675    -185.219     -38.838
  P      214.826    -185.164     -37.715
  C      215.403    -187.705     -37.868
  O      215.871    -186.366     -37.924
  C      216.557    -188.708     -38.056
  O      217.009    -188.692     -39.438
  C      217.787    -188.434     -37.180
  O      218.377    -189.704     -36.864
  C      218.697    -187.657     -38.118
  O      220.059    -187.665     -37.717
  C      218.423    -188.402     -39.432
  N      218.815    -187.665     -40.635
  C      220.116    -187.815     -41.098
  O      220.987    -188.477     -40.535
  N      220.423    -187.135     -42.252
  C      219.586    -186.307     -42.944
  O      219.930    -185.705     -43.954
  C      218.230    -186.164     -42.394
  C      217.914    -186.838     -41.283
  O      214.032    -185.632     -36.402
  O      215.444    -183.824     -37.493
  H      220.550    -187.122     -38.360
  H      214.248    -185.038     -35.660
  H      221.361    -187.243     -42.611
  H      217.535    -185.521     -42.918
  H      216.915    -186.756     -40.863
  H      218.941    -189.368     -39.419
  H      218.367    -186.615     -38.162
  H      217.548    -187.887     -36.262
  H      216.164    -189.713     -37.864
  H      214.662    -187.865     -38.654
  H      214.920    -187.871     -36.897
  P      218.137    -190.317     -35.396
  C      218.276    -192.778     -36.295
  O      218.754    -191.791     -35.399
  O      216.551    -190.582     -35.453
  O      218.547    -189.418     -34.276
  H      216.271    -191.003     -36.283
  H      218.089    -192.352     -37.289
  H      217.344    -193.202     -35.906
  H      219.019    -193.567     -36.378
  H      211.745    -184.772     -39.395
  H      212.498    -183.609     -38.330
  H      211.960    -185.149     -37.703

 3  4  5  6  7  8  9  10  11  12  13  23  28  29  30  31  32 0
 6-311+G(2d,p)
 ****
 33  34 0
 6-311+G(2d,p)
 ****
 1  2  14  15  16  17  18  19  20  21  22  24  25  26 0
 3-21G
 ****
 27  35  36  37  38  39  40  41  42  43  44  45 0
 3-21G
 ****


