%nproc=1
%NoSave
%Mem=1900MB
#P OB98/GEN NMR

erre ene a

0 1
  C      -74.426    -148.372     -27.881
  O      -73.856    -149.594     -28.310
  H      -75.504    -148.511     -27.764
  H      -74.249    -147.593     -28.627
  H      -74.001    -148.076     -26.920
  P      -72.264    -149.606     -28.518
  C      -71.951    -149.815     -31.079
  O      -72.046    -150.495     -29.835
  C      -72.289    -150.758     -32.230
  O      -72.364    -150.035     -33.472
  C      -71.266    -151.864     -32.456
  O      -71.465    -152.931     -31.545
  C      -71.599    -152.271     -33.883
  O      -72.754    -153.135     -33.886
  C      -71.951    -150.926     -34.543
  N      -69.361    -150.831     -38.973
  C      -70.280    -151.694     -38.489
  N      -70.894    -151.681     -37.288
  C      -70.474    -150.642     -36.549
  C      -69.543    -149.680     -36.909
  C      -68.981    -149.795     -38.191
  N      -68.051    -148.906     -38.685
  N      -69.363    -148.767     -35.891
  C      -70.210    -149.141     -34.954
  N      -70.880    -150.291     -35.289
  O      -71.459    -149.982     -27.324
  O      -72.019    -148.120     -29.065
  H      -72.931    -153.384     -34.812
  H      -72.736    -147.854     -29.665
  H      -70.563    -152.502     -39.158
  H      -70.388    -148.609     -34.027
  H      -72.796    -151.022     -35.234
  H      -70.787    -152.826     -34.358
  H      -70.243    -151.476     -32.425
  H      -73.284    -151.178     -32.039
  H      -70.944    -149.406     -31.215
  H      -67.575    -149.157     -39.538
  H      -67.678    -148.211     -38.056
  H      -72.661    -148.982     -31.053
  P      -70.230    -153.560     -30.739
  C      -69.953    -155.667     -32.185
  O      -70.333    -155.152     -30.915
  O      -70.096    -153.099     -29.330
  O      -68.947    -153.182     -31.613
  H      -68.193    -152.960     -31.033
  H      -70.062    -156.731     -32.185
  H      -68.933    -155.413     -32.382
  H      -70.579    -155.244     -32.943

 6  7  8  9  10  11  12  13  14  15  25  28  32  33  34  35 0
 6-311+G(2d,p)
 ****
 36  39  40 0
 6-311+G(2d,p)
 ****
 1  2  3  4  5  16  17  18  19  20  21  22  23  24 0
 3-21G
 ****
 26  27  29  30  31  37  38  41  42  43  44  45  46  47 0
 3-21G
 ****
 48 0
 3-21G
 ****


