%nproc=1
%NoSave
%Mem=1900MB
#P OB98/GEN NMR

erre ene a

0 1
  C      491.893    -369.023     180.898
  O      492.360    -368.004     180.008
  P      492.662    -366.562     180.660
  C      495.164    -367.094     181.134
  O      493.894    -366.739     181.670
  C      496.246    -366.153     181.652
  O      496.399    -366.274     183.080
  C      497.633    -366.417     181.082
  O      497.780    -365.867     179.782
  C      498.517    -365.681     182.079
  O      498.562    -364.283     181.753
  C      497.765    -365.902     183.404
  N      498.549    -367.545     188.134
  C      497.910    -366.404     187.687
  N      497.376    -365.603     188.639
  N      497.795    -366.085     186.429
  C      498.351    -366.989     185.591
  C      499.016    -368.153     185.913
  C      499.157    -368.481     187.315
  O      499.743    -369.464     187.770
  N      499.427    -368.822     184.790
  C      498.987    -368.080     183.791
  N      498.344    -366.952     184.225
  O      491.413    -366.347     181.643
  O      492.789    -365.462     179.664
  H      499.092    -364.195     180.937
  H      491.246    -365.389     181.763
  H      498.610    -367.740     189.122
  H      499.113    -368.318     182.742
  H      497.716    -364.988     184.003
  H      499.547    -366.041     182.077
  H      497.355    -365.824     189.622
  H      497.866    -367.490     181.093
  H      496.869    -364.780     188.327
  H      495.940    -365.120     181.425
  H      495.131    -367.045     180.043
  H      495.383    -368.133     181.402
  P      499.033    -366.363     178.908
  C      497.446    -367.702     177.350
  O      498.559    -367.727     178.216
  O      500.085    -366.834     180.015
  O      499.603    -365.329     177.996
  H      500.998    -366.730     179.682
  H      497.482    -366.831     176.692
  H      496.516    -367.668     177.939
  H      497.443    -368.607     176.745
  H      491.730    -369.928     180.350
  H      490.975    -368.709     181.350
  H      492.625    -369.194     181.659

 3  4  5  6  7  8  9  10  11  12  23  26  30  31  33  0
 6-311+G(2d,p)
 ****
 35  36  37  38 0
 6-311+G(2d,p)
 ****
 1  2  13  14  15  16  17  18  19  20  21  22  24  25  27  28  29 0
 3-21G
 ****
 32  34  39  40  41  42  43  44  45  46  47  48  49 0
 3-21G
 ****


