%nproc=1
%NoSave
%Mem=1900MB
#P OB98/GEN NMR

erre ene a

0 1
  C      -85.794     -77.391    -322.891
  O      -84.487     -76.846    -322.913
  P      -83.549     -77.158    -324.173
  C      -84.680     -75.129    -325.344
  O      -84.215     -76.465    -325.459
  C      -84.395     -74.353    -326.631
  O      -85.091     -73.071    -326.584
  C      -82.908     -74.056    -326.867
  O      -82.680     -74.086    -328.282
  C      -82.773     -72.633    -326.359
  O      -81.622     -71.969    -326.858
  C      -84.106     -72.049    -326.837
  N      -84.447     -70.792    -326.172
  C      -85.547     -70.091    -326.653
  O      -86.240     -70.462    -327.597
  N      -85.798     -68.891    -326.049
  C      -85.029     -68.292    -325.091
  O      -85.244     -67.162    -324.674
  C      -83.878     -69.081    -324.620
  C      -83.647     -70.274    -325.170
  O      -83.779     -78.720    -324.425
  O      -82.108     -76.831    -323.974
  H      -81.617     -71.070    -326.483
  H      -83.041     -79.238    -324.051
  H      -86.601     -68.371    -326.376
  H      -83.258     -68.646    -323.849
  H      -82.793     -70.868    -324.857
  H      -84.081     -71.889    -327.922
  H      -82.709     -72.641    -325.265
  H      -82.236     -74.754    -326.358
  H      -84.812     -74.915    -327.477
  H      -84.170     -74.642    -324.510
  H      -85.753     -75.132    -325.122
  P      -81.289     -74.694    -328.808
  C      -81.783     -77.135    -328.016
  O      -80.980     -75.981    -327.906
  O      -80.260     -73.590    -328.273
  O      -81.242     -74.892    -330.288
  H      -80.456     -73.303    -327.365
  H      -82.136     -77.288    -329.039
  H      -82.645     -77.043    -327.348
  H      -81.197     -78.007    -327.713
  H      -86.289     -77.093    -321.991
  H      -85.736     -78.459    -322.930
  H      -86.344     -77.033    -323.736

 3  4  5  6  7  8  9  10  11  12  13  23  28  29  30  31  32 0
 6-311+G(2d,p)
 ****
 33  34 0
 6-311+G(2d,p)
 ****
 1  2  14  15  16  17  18  19  20  21  22  24  25  26 0
 3-21G
 ****
 27  35  36  37  38  39  40  41  42  43  44  45 0
 3-21G
 ****


