%nproc=1
%NoSave
%Mem=1900MB
#P OB98/GEN NMR

erre ene a

0 1
  C     -331.683    -314.851     304.471
  O     -331.964    -315.931     303.608
  H     -331.290    -314.020     303.880
  H     -330.926    -315.145     305.203
  H     -332.590    -314.520     304.985
  P     -332.701    -317.210     304.239
  C     -331.574    -318.775     302.500
  O     -332.787    -318.311     303.072
  C     -331.755    -319.028     301.002
  O     -331.664    -317.760     300.299
  C     -330.704    -319.970     300.408
  O     -331.341    -320.805     299.435
  C     -329.732    -319.034     299.713
  O     -329.022    -319.669     298.650
  C     -330.660    -317.894     299.277
  N     -329.920    -316.650     299.079
  C     -330.102    -315.998     297.856
  O     -330.848    -316.482     297.002
  N     -329.393    -314.852     297.602
  C     -328.515    -314.438     298.459
  N     -327.822    -313.311     298.138
  C     -328.237    -315.133     299.736
  C     -328.976    -316.214     299.980
  O     -334.216    -316.724     304.397
  O     -332.126    -317.710     305.521
  H     -329.678    -320.079     298.043
  H     -334.645    -317.147     305.165
  H     -327.478    -314.763     300.404
  H     -328.841    -316.791     300.885
  H     -331.173    -318.150     298.340
  H     -328.996    -318.669     300.438
  H     -330.212    -320.597     301.156
  H     -332.767    -319.415     300.835
  H     -328.026    -312.879     297.247
  H     -331.287    -319.713     302.986
  H     -327.080    -312.926     298.708
  H     -330.785    -318.035     302.670
  P     -331.084    -322.383     299.563
  C     -331.168    -323.084     297.061
  O     -331.810    -323.109     298.330
  O     -331.972    -322.801     300.826
  O     -329.647    -322.743     299.752
  H     -331.395    -323.009     301.584
  H     -331.770    -323.605     296.346
  H     -330.212    -323.558     297.136
  H     -331.039    -322.069     296.746

 6  7  8  9  10  11  12  13  14  15  16  26  30  31  32  33  35 0
 6-311+G(2d,p)
 ****
 37  38 0
 6-311+G(2d,p)
 ****
 1  2  3  4  5  17  18  19  20  21  22  23  24  25 0
 3-21G
 ****
 27  28  29  34  36  39  40  41  42  43  44  45  46 0
 3-21G
 ****


