%nproc=1
%NoSave
%Mem=1900MB
#P OB98/GEN NMR

erre ene a

0 1
  C     -422.973     692.383     -68.932
  O     -421.864     691.510     -69.073
  H     -423.720     692.169     -69.702
  H     -423.423     692.214     -67.947
  H     -422.646     693.423     -68.998
  P     -421.044     691.619     -70.449
  C     -423.028     690.436     -71.632
  O     -422.127     691.538     -71.629
  C     -422.967     689.717     -72.978
  O     -423.792     688.527     -72.942
  C     -423.484     690.535     -74.163
  O     -422.507     691.458     -74.627
  C     -423.740     689.435     -75.181
  O     -422.494     689.039     -75.788
  C     -424.285     688.295     -74.297
  N     -428.429     685.996     -76.220
  C     -427.114     685.784     -76.408
  N     -426.063     686.422     -75.848
  C     -426.493     687.369     -74.984
  C     -427.804     687.685     -74.677
  C     -428.810     686.959     -75.340
  N     -430.164     687.240     -75.189
  N     -427.846     688.728     -73.766
  C     -426.591     689.039     -73.546
  N     -425.728     688.244     -74.259
  O     -420.285     690.207     -70.520
  O     -420.084     692.763     -70.528
  H     -422.255     689.749     -76.418
  H     -419.374     690.313     -70.186
  H     -426.856     684.994     -77.113
  H     -426.247     689.825     -72.892
  H     -423.908     687.316     -74.610
  H     -424.414     689.744     -75.988
  H     -424.431     691.032     -73.925
  H     -421.926     689.401     -73.151
  H     -424.045     690.798     -71.458
  H     -430.717     687.006     -76.009
  H     -430.358     688.126     -74.734
  H     -422.748     689.748     -70.827
  P     -422.991     692.949     -74.973
  C     -424.425     692.238     -77.008
  O     -424.417     692.813     -75.705
  O     -422.000     693.383     -76.152
  O     -422.936     693.918     -73.838
  H     -421.534     694.210     -75.909
  H     -425.429     692.207     -77.378
  H     -424.031     691.244     -76.962
  H     -423.822     692.831     -77.663

 6  7  8  9  10  11  12  13  14  15  25  28  32  33  34  35 0
 6-311+G(2d,p)
 ****
 36  39  40 0
 6-311+G(2d,p)
 ****
 1  2  3  4  5  16  17  18  19  20  21  22  23  24 0
 3-21G
 ****
 26  27  29  30  31  37  38  41  42  43  44  45  46  47  48 0
 3-21G
 ****


