%nproc=1
%NoSave
%Mem=1900MB
#P OB98/GEN NMR

erre ene a

0 1
  C      332.355     417.547    -210.403
  O      332.428     416.713    -211.565
  P      331.068     415.963    -211.980
  C      331.719     415.585    -214.462
  O      331.403     414.982    -213.213
  C      332.246     414.547    -215.465
  O      333.624     414.189    -215.175
  C      331.440     413.237    -215.479
  O      331.445     412.762    -216.834
  C      332.288     412.310    -214.627
  O      331.965     410.939    -214.852
  C      333.677     412.742    -215.075
  N      338.303     410.716    -214.875
  C      337.466     410.913    -215.948
  N      337.951     410.570    -217.166
  N      336.262     411.411    -215.860
  C      335.918     411.747    -214.579
  C      336.668     411.620    -213.425
  C      337.992     411.036    -213.558
  O      338.776     410.844    -212.631
  N      335.991     412.106    -212.338
  C      334.814     412.462    -212.825
  N      334.736     412.328    -214.185
  O      330.199     417.132    -212.645
  O      330.358     415.320    -210.840
  H      332.093     410.772    -215.809
  H      329.540     417.465    -212.010
  H      339.214     410.314    -215.007
  H      333.993     412.858    -212.240
  H      333.940     412.340    -216.071
  H      332.135     412.535    -213.556
  H      338.885     410.224    -217.319
  H      330.412     413.333    -215.111
  H      337.366     410.744    -217.978
  H      332.233     415.002    -216.466
  H      332.480     416.356    -214.326
  H      330.832     416.097    -214.852
  P      330.045     412.326    -217.471
  C      330.891     412.848    -219.873
  O      330.327     411.891    -218.990
  O      329.263     413.723    -217.626
  O      329.249     411.358    -216.656
  H      328.317     413.597    -217.416
  H      331.434     412.320    -220.649
  H      331.573     413.521    -219.352
  H      330.085     413.435    -220.329
  H      333.311     417.992    -210.223
  H      332.071     416.956    -209.557
  H      331.628     418.316    -210.561

 3  4  5  6  7  8  9  10  11  12  23  26  30  31 0
 6-311+G(2d,p)
 ****
 33  35  36  37  38 0
 6-311+G(2d,p)
 ****
 1  2  13  14  15  16  17  18  19  20  21  22  24  25 0
 3-21G
 ****
 27  28  29  32  34  39  40  41  42  43  44  45  46  47  48  49 0
 3-21G
 ****


