%nproc=1
%NoSave
%Mem=1900MB
#P OB98/GEN NMR

erre ene a

0 1
  C      134.232    -629.622     199.622
  O      135.357    -630.182     198.929
  P      136.366    -629.133     198.251
  C      138.497    -630.601     198.504
  O      137.582    -629.966     197.617
  C      139.220    -631.772     197.833
  O      138.259    -632.828     197.555
  C      139.915    -631.444     196.505
  O      141.135    -632.175     196.431
  C      138.965    -632.007     195.455
  O      139.627    -632.268     194.222
  C      138.468    -633.242     196.198
  N      136.410    -636.882     193.323
  C      137.706    -636.727     193.764
  N      138.593    -637.682     193.364
  N      138.111    -635.755     194.528
  C      137.114    -634.885     194.872
  C      135.785    -634.931     194.497
  C      135.366    -636.000     193.627
  O      134.246    -636.158     193.153
  N      135.077    -633.891     195.050
  C      135.984    -633.213     195.746
  N      137.228    -633.775     195.649
  O      137.020    -628.388     199.512
  O      135.701    -628.157     197.326
  H      139.961    -631.405     193.909
  H      136.877    -627.422     199.438
  H      136.155    -637.652     192.721
  H      135.783    -632.297     196.297
  H      139.217    -634.041     196.178
  H      138.168    -631.281     195.286
  H      138.334    -638.494     192.829
  H      140.123    -630.372     196.368
  H      139.543    -637.612     193.720
  H      139.951    -632.175     198.556
  H      137.947    -630.965     199.375
  H      139.225    -629.855     198.851
  P      142.492    -631.310     196.321
  C      143.816    -633.141     197.648
  O      143.689    -632.386     196.445
  O      142.545    -630.538     197.723
  O      142.550    -630.399     195.161
  H      143.036    -629.706     197.638
  H      142.937    -633.056     198.290
  H      144.700    -632.788     198.197
  H      143.959    -634.190     197.376
  H      133.635    -630.411     200.029
  H      133.643    -629.046     198.939
  H      134.579    -628.992     200.414

 3  4  5  6  7  8  9  10  11  12  23  26  30  31  33  0
 6-311+G(2d,p)
 ****
 35  36  37  38 0
 6-311+G(2d,p)
 ****
 1  2  13  14  15  16  17  18  19  20  21  22  24  25  27  28  29 0
 3-21G
 ****
 32  34  39  40  41  42  43  44  45  46  47  48  49 0
 3-21G
 ****


