%nproc=1
%NoSave
%Mem=1900MB
#P OB98/GEN NMR

erre ene a

0 1
  C      321.245    -267.979      29.327
  O      322.057    -269.006      28.778
  P      322.846    -269.965      29.788
  C      325.038    -269.852      31.183
  O      324.115    -269.157      30.353
  C      325.531    -268.958      32.320
  O      324.402    -268.512      33.124
  C      326.518    -269.649      33.265
  O      327.477    -268.691      33.736
  C      325.656    -270.048      34.447
  O      326.434    -270.221      35.627
  C      324.675    -268.877      34.490
  N      322.651    -270.064      38.971
  C      323.889    -269.524      38.682
  N      324.731    -269.355      39.723
  N      324.265    -269.166      37.483
  C      323.321    -269.399      36.539
  C      322.055    -269.911      36.700
  C      321.655    -270.310      38.028
  O      320.586    -270.825      38.352
  N      321.374    -269.963      35.507
  C      322.240    -269.525      34.618
  N      323.442    -269.198      35.185
  O      323.498    -271.054      28.806
  O      321.991    -270.625      30.817
  H      327.215    -270.749      35.375
  H      323.014    -271.896      28.877
  H      322.411    -270.332      39.909
  H      322.053    -269.436      33.555
  H      325.117    -268.002      34.983
  H      325.141    -270.996      34.234
  H      324.528    -269.677      40.665
  H      327.051    -270.502      32.821
  H      325.661    -269.001      39.541
  H      325.983    -268.055      31.882
  H      325.887    -270.175      30.581
  H      324.550    -270.748      31.590
  P      328.995    -269.212      33.856
  C      330.278    -270.631      35.630
  O      329.094    -269.940      35.283
  O      329.831    -267.862      34.065
  O      329.467    -270.008      32.686
  H      330.753    -267.984      33.758
  H      330.725    -270.144      36.498
  H      331.006    -270.639      34.816
  H      330.025    -271.663      35.892
  H      320.786    -267.426      28.535
  H      321.850    -267.322      29.916
  H      320.487    -268.415      29.944

 3  4  5  6  7  8  9  10  11  12  23  26  30  31 0
 6-311+G(2d,p)
 ****
 33  35  36  37  38 0
 6-311+G(2d,p)
 ****
 1  2  13  14  15  16  17  18  19  20  21  22  24  25 0
 3-21G
 ****
 27  28  29  32  34  39  40  41  42  43  44  45  46  47  48  49 0
 3-21G
 ****


