%nproc=1
%NoSave
%Mem=1900MB
#P OB98/GEN NMR

erre ene a

0 1
  C       78.169     -24.186      96.646
  O       77.243     -24.973      97.366
  H       79.158     -24.649      96.674
  H       77.840     -24.118      95.605
  H       78.217     -23.178      97.066
  P       77.565     -25.204      98.922
  C       75.216     -24.546      99.783
  O       76.173     -25.583      99.631
  C       74.559     -24.238      98.439
  O       73.765     -25.389      98.049
  C       73.638     -23.006      98.458
  O       73.957     -22.124      97.375
  C       72.252     -23.577      98.225
  O       71.415     -22.712      97.466
  C       72.545     -24.881      97.495
  N       67.917     -26.197      95.809
  C       68.895     -25.455      95.245
  N       70.141     -25.223      95.703
  C       70.352     -25.877      96.858
  C       69.461     -26.688      97.541
  C       68.180     -26.823      96.979
  N       67.166     -27.534      97.582
  N       70.034     -27.183      98.698
  C       71.236     -26.643      98.735
  N       71.468     -25.835      97.652
  O       77.870     -23.724      99.455
  O       78.703     -26.128      99.189
  H       70.598     -23.203      97.263
  H       78.786     -23.694      99.791
  H       68.640     -24.980      94.302
  H       71.955     -26.765      99.535
  H       72.705     -24.719      96.421
  H       71.774     -23.760      99.195
  H       73.691     -22.455      99.402
  H       75.345     -24.118      97.683
  H       75.710     -23.641     100.154
  H       66.248     -27.482      97.171
  H       67.325     -27.908      98.507
  H       74.462     -24.859     100.513
  P       75.128     -21.056      97.650
  C       75.799     -20.806      95.154
  O       75.310     -20.165      96.325
  O       76.445     -21.964      97.693
  O       74.954     -20.287      98.917
  H       76.912     -21.834      98.541
  H       75.867     -20.093      94.359
  H       75.130     -21.592      94.872
  H       76.768     -21.216      95.350

 6  7  8  9  10  11  12  13  14  15  25  28  32  33  34  35 0
 6-311+G(2d,p)
 ****
 36  39  40 0
 6-311+G(2d,p)
 ****
 1  2  3  4  5  16  17  18  19  20  21  22  23  24 0
 3-21G
 ****
 26  27  29  30  31  37  38  41  42  43  44  45  46  47  48 0
 3-21G
 ****


