%nproc=1
%NoSave
%Mem=1900MB
#P OB98/GEN NMR

erre ene a

0 1
  C     -168.148    -332.897      33.798
  O     -169.346    -333.527      34.260
  P     -170.715    -333.169      33.506
  C     -171.336    -330.906      34.638
  O     -170.879    -331.561      33.472
  C     -172.355    -329.803      34.319
  O     -173.551    -330.384      33.714
  C     -172.829    -329.013      35.541
  O     -173.156    -327.690      35.126
  C     -174.107    -329.739      35.928
  O     -174.936    -328.931      36.772
  C     -174.681    -330.045      34.541
  N     -179.538    -331.209      35.251
  C     -178.890    -329.991      35.335
  N     -179.651    -328.911      35.632
  N     -177.602    -329.835      35.166
  C     -176.976    -331.003      34.847
  C     -177.497    -332.259      34.736
  C     -178.909    -332.425      34.964
  O     -179.540    -333.469      34.922
  N     -176.531    -333.192      34.435
  C     -175.424    -332.479      34.345
  N     -175.635    -331.157      34.570
  O     -171.846    -333.634      34.561
  O     -170.892    -333.859      32.195
  H     -175.034    -328.058      36.327
  H     -172.284    -334.432      34.247
  H     -180.524    -331.267      35.422
  H     -174.429    -332.882      34.152
  H     -175.179    -329.188      34.100
  H     -173.870    -330.663      36.472
  H     -180.664    -328.951      35.728
  H     -172.109    -328.964      36.364
  H     -179.204    -328.002      35.667
  H     -171.914    -329.132      33.569
  H     -170.477    -330.449      35.176
  H     -171.745    -331.646      35.330
  P     -172.064    -326.558      35.390
  C     -173.108    -325.741      37.628
  O     -171.995    -326.349      36.978
  O     -172.799    -325.205      34.867
  O     -170.768    -326.777      34.706
  H     -172.132    -324.544      34.606
  H     -173.692    -326.529      38.148
  H     -173.745    -325.214      36.929
  H     -172.715    -325.042      38.382
  H     -167.320    -333.228      34.390
  H     -168.247    -331.835      33.885
  H     -167.981    -333.157      32.774

 3  4  5  6  7  8  9  10  11  12  23  26  30  31 0
 6-311+G(2d,p)
 ****
 33  35  36  37  38 0
 6-311+G(2d,p)
 ****
 1  2  13  14  15  16  17  18  19  20  21  22  24  25 0
 3-21G
 ****
 27  28  29  32  34  39  40  41  42  43  44  45  46  47  48  49 0
 3-21G
 ****


