%nproc=1
%NoSave
%Mem=1900MB
#P OB98/GEN NMR

erre ene a

0 1
  C     -517.312    -421.287    -890.840
  O     -518.111    -421.574    -891.970
  P     -517.674    -420.892    -893.360
  C     -517.365    -418.421    -894.140
  O     -517.958    -419.323    -893.180
  C     -518.324    -417.271    -894.450
  O     -518.607    -416.508    -893.280
  C     -517.779    -416.272    -895.450
  O     -517.857    -416.784    -896.780
  C     -518.681    -415.085    -895.200
  O     -519.900    -415.191    -895.980
  C     -518.984    -415.191    -893.690
  N     -518.297    -414.161    -892.900
  C     -519.081    -413.558    -891.920
  O     -520.288    -413.868    -891.780
  N     -518.503    -412.561    -891.140
  C     -517.262    -412.243    -891.340
  N     -516.758    -411.256    -890.550
  C     -516.430    -412.844    -892.400
  C     -516.990    -413.809    -893.140
  O     -518.829    -421.362    -894.380
  O     -516.309    -421.264    -893.850
  H     -519.601    -415.453    -896.880
  H     -518.515    -421.394    -895.300
  H     -515.390    -412.525    -892.500
  H     -516.463    -414.310    -893.940
  H     -520.053    -415.106    -893.510
  H     -518.189    -414.144    -895.480
  H     -516.735    -416.020    -895.220
  H     -519.276    -417.702    -894.830
  H     -517.372    -410.861    -889.860
  H     -517.129    -418.962    -895.050
  H     -515.793    -410.944    -890.600
  H     -516.415    -418.024    -893.700
  P     -516.818    -416.219    -897.860
  C     -515.794    -413.892    -898.140
  O     -516.970    -414.633    -897.760
  O     -517.576    -416.587    -899.240
  O     -515.427    -416.782    -897.830
  H     -516.981    -416.346    -900.000
  H     -516.092    -412.825    -898.200
  H     -515.453    -414.221    -899.130
  H     -515.020    -414.029    -897.410
  H     -517.706    -421.797    -889.986
  H     -517.316    -420.232    -890.659
  H     -516.309    -421.614    -891.020

 3  4  5  6  7  8  9  10  11  12  13  21  23  27  28  29  30  32 0
 6-311+G(2d,p)
 ****
 34  35 0
 6-311+G(2d,p)
 ****
 1  2  14  15  16  17  18  19  20  22  24  25  26 0
 3-21G
 ****
 31  33  36  37  38  39  40  41  42  43  44  45  46 0
 3-21G
 ****


