%nproc=1
%NoSave
%Mem=1900MB
#P OB98/GEN NMR

erre ene a

0 1
  C      -77.425     338.676      75.834
  O      -76.144     339.186      75.516
  H      -78.164     339.157      75.187
  H      -77.682     338.884      76.875
  H      -77.454     337.599      75.653
  P      -74.929     338.848      76.508
  C      -74.617     336.582      75.316
  O      -74.852     337.242      76.556
  C      -73.193     336.030      75.243
  O      -73.008     334.967      76.202
  C      -72.836     335.409      73.900
  O      -72.766     336.321      72.829
  C      -71.608     334.585      74.257
  O      -70.413     335.364      74.280
  C      -71.963     334.109      75.689
  N      -72.348     332.705      75.730
  C      -71.307     331.784      75.701
  O      -70.120     332.104      75.623
  N      -71.674     330.468      75.733
  C      -72.952     329.995      75.741
  O      -73.219     328.797      75.748
  C      -74.014     331.015      75.733
  C      -73.672     332.304      75.730
  O      -74.998     339.493      77.862
  O      -73.627     339.247      75.671
  H      -70.157     335.520      73.352
  H      -72.833     339.316      76.255
  H      -70.934     329.785      75.728
  H      -75.041     330.674      75.726
  H      -74.436     333.076      75.724
  H      -71.099     334.244      76.355
  H      -71.446     333.764      73.553
  H      -73.623     334.693      73.634
  H      -72.503     336.838      75.504
  H      -74.761     337.319      74.515
  H      -75.345     335.774      75.188
  P      -73.097     335.938      71.318
  C      -75.686     336.115      71.673
  O      -74.578     335.321      71.262
  O      -72.018     335.247      70.546
  O      -73.317     337.394      70.652
  H      -72.996     337.343      69.732
  H      -76.588     335.549      71.570
  H      -75.743     336.991      71.062
  H      -75.559     336.402      72.696

 6  7  8  9  10  11  12  13  14  15  16  26  31  32  33  34  35 0
 6-311+G(2d,p)
 ****
 36  37 0
 6-311+G(2d,p)
 ****
 1  2  3  4  5  17  18  19  20  21  22  23  24  25 0
 3-21G
 ****
 27  28  29  30  38  39  40  41  42  43  44  45 0
 3-21G
 ****


