%nproc=1
%NoSave
%Mem=1900MB
#P OB98/GEN NMR

erre ene a

0 1
  C     -285.251     136.348     125.881
  O     -284.010     135.820     126.346
  P     -282.666     136.451     125.747
  C     -282.464     138.534     127.337
  O     -281.951     137.280     126.920
  C     -281.651     139.103     128.515
  O     -282.129     138.495     129.741
  C     -280.152     138.811     128.472
  O     -279.485     139.720     129.348
  C     -280.098     137.415     129.060
  O     -278.786     137.083     129.505
  C     -281.184     137.473     130.158
  N     -281.885     136.189     130.368
  C     -282.098     135.754     131.681
  O     -281.735     136.382     132.677
  N     -282.714     134.541     131.823
  C     -283.169     133.751     130.806
  O     -283.641     132.631     130.988
  C     -283.048     134.315     129.460
  C     -282.413     135.479     129.303
  O     -283.193     137.572     124.741
  O     -281.779     135.456     125.074
  H     -278.864     136.247     130.017
  H     -283.088     137.275     123.815
  H     -282.815     134.185     132.764
  H     -283.457     133.745     128.629
  H     -282.294     135.900     128.305
  H     -280.755     137.771     131.124
  H     -280.375     136.680     128.296
  H     -279.708     138.851     127.476
  H     -281.832     140.187     128.586
  H     -283.518     138.429     127.618
  H     -282.436     139.238     126.495
  P     -278.611     140.896     128.688
  C     -280.727     142.341     128.469
  O     -279.406     142.265     128.971
  O     -278.182     140.679     127.275
  O     -277.358     141.008     129.682
  H     -276.622     141.471     129.230
  H     -281.310     143.009     129.116
  H     -281.207     141.362     128.445
  H     -280.704     142.762     127.460
  H     -286.059     135.837     126.362
  H     -285.322     136.211     124.822
  H     -285.303     137.392     126.110

 3  4  5  6  7  8  9  10  11  12  13  23  28  29  30  31  32 0
 6-311+G(2d,p)
 ****
 33  34 0
 6-311+G(2d,p)
 ****
 1  2  14  15  16  17  18  19  20  21  22  24  25  26  27 0
 3-21G
 ****
 35  36  37  38  39  40  41  42  43  44  45 0
 3-21G
 ****


