%nproc=1
%NoSave
%Mem=1900MB
#P OB98/GEN NMR

erre ene a

0 1
  C     -598.081    -477.432      44.583
  O     -599.381    -477.925      44.307
  H     -597.626    -477.091      43.651
  H     -597.459    -478.234      45.005
  H     -598.139    -476.592      45.278
  P     -600.195    -478.531      45.547
  C     -601.478    -476.402      46.285
  O     -600.428    -477.316      46.572
  C     -602.270    -476.089      47.551
  O     -601.442    -475.445      48.544
  C     -603.477    -475.186      47.329
  O     -604.601    -475.928      46.880
  C     -603.680    -474.602      48.721
  O     -604.367    -475.532      49.578
  C     -602.232    -474.415      49.196
  N     -602.183    -469.546      50.582
  C     -602.947    -470.599      51.045
  N     -603.861    -470.314      52.004
  N     -602.842    -471.831      50.596
  C     -601.935    -471.959      49.606
  C     -601.121    -470.999      49.046
  C     -601.212    -469.645      49.587
  O     -600.508    -468.691      49.275
  N     -600.311    -471.522      48.062
  C     -600.681    -472.795      47.999
  N     -601.657    -473.100      48.908
  O     -599.104    -479.437      46.300
  O     -601.408    -479.328      45.196
  H     -604.445    -475.147      50.477
  H     -599.542    -480.246      46.631
  H     -602.292    -468.631      50.978
  H     -600.247    -473.523      47.322
  H     -602.121    -474.566      50.282
  H     -604.283    -473.691      48.701
  H     -604.183    -469.367      52.162
  H     -603.241    -474.370      46.629
  H     -604.462    -471.070      52.296
  H     -602.591    -477.054      47.980
  H     -602.140    -476.849      45.536
  H     -601.050    -475.480      45.887
  P     -605.789    -475.141      46.154
  C     -605.097    -476.032      43.806
  O     -605.359    -474.895      44.627
  O     -605.714    -473.681      46.804
  O     -607.146    -475.749      46.341
  H     -606.453    -473.565      47.445
  H     -604.824    -475.707      42.824
  H     -605.975    -476.641      43.750
  H     -604.295    -476.600      44.229

 6  7  8  9  10  11  12  13  14  15  26  29  33  34 0
 6-311+G(2d,p)
 ****
 36  38  39  40  41 0
 6-311+G(2d,p)
 ****
 1  2  3  4  5  16  17  18  19  20  21  22  23  24  25 0
 3-21G
 ****
 27  28  30  31  32  35  37  42  43  44  45  46  47 0
 3-21G
 ****
 48  49 0
 3-21G
 ****


