%nproc=1
%NoSave
%Mem=1900MB
#P OB98/GEN NMR

erre ene a

0 1
  C     1075.936    -379.857    1131.526
  O     1074.624    -379.473    1131.903
  P     1074.374    -378.125    1132.737
  C     1072.312    -378.144    1131.172
  O     1072.845    -377.722    1132.435
  C     1070.978    -377.444    1130.900
  O     1071.124    -376.000    1131.042
  C     1070.458    -377.659    1129.471
  O     1069.890    -378.957    1129.348
  C     1069.471    -376.504    1129.347
  O     1068.210    -376.837    1129.958
  C     1070.187    -375.373    1130.140
  N     1070.847    -374.404    1129.268
  C     1069.961    -373.646    1128.474
  O     1068.754    -373.822    1128.511
  N     1070.516    -372.709    1127.608
  C     1071.824    -372.596    1127.524
  N     1072.291    -371.667    1126.656
  C     1072.760    -373.413    1128.332
  C     1072.214    -374.313    1129.163
  O     1075.391    -377.032    1132.489
  O     1074.331    -378.630    1134.253
  H     1067.845    -377.576    1129.413
  H     1075.226    -378.862    1134.590
  H     1073.817    -373.274    1128.222
  H     1072.812    -374.949    1129.764
  H     1069.464    -374.839    1130.771
  H     1069.277    -376.250    1128.288
  H     1071.283    -377.515    1128.739
  H     1070.239    -377.800    1131.628
  H     1071.621    -371.142    1126.099
  H     1072.157    -379.229    1131.206
  H     1073.296    -371.506    1126.476
  H     1073.050    -377.937    1130.395
  P     1069.964    -379.735    1127.960
  C     1069.654    -382.061    1129.012
  O     1069.118    -381.100    1128.113
  O     1071.352    -379.891    1127.387
  O     1069.051    -378.879    1126.968
  H     1069.494    -378.779    1126.126
  H     1068.866    -382.775    1129.265
  H     1070.040    -381.598    1129.922
  H     1070.484    -382.619    1128.507
  H     1075.896    -380.777    1130.981
  H     1076.535    -379.988    1132.403
  H     1076.367    -379.096    1130.910

 3  4  5  6  7  8  9  10  11  12  13  23  27  28  29  30  32 0
 6-311+G(2d,p)
 ****
 34  35 0
 6-311+G(2d,p)
 ****
 1  2  14  15  16  17  18  19  20  21  22  24  25  26 0
 3-21G
 ****
 31  33  36  37  38  39  40  41  42  43  44  45  46 0
 3-21G
 ****


