%nproc=1
%NoSave
%Mem=1900MB
#P OB98/GEN NMR

erre ene a

0 1
  C     -631.049      15.041    -646.158
  O     -630.231      13.887    -646.211
  H     -632.050      14.782    -645.790
  H     -630.598      15.757    -645.462
  H     -631.119      15.501    -647.149
  P     -630.774      12.673    -647.099
  C     -628.435      11.988    -647.993
  O     -629.734      12.485    -648.310
  C     -627.423      12.457    -649.039
  O     -627.401      13.909    -649.089
  C     -625.993      12.030    -648.766
  O     -625.751      10.685    -649.145
  C     -625.233      13.009    -649.679
  O     -625.263      12.521    -651.033
  C     -626.078      14.291    -649.553
  N     -624.676      19.199    -648.909
  C     -625.193      18.535    -649.979
  N     -625.530      17.231    -650.074
  C     -625.303      16.589    -648.913
  C     -624.764      17.121    -647.752
  C     -624.441      18.479    -647.776
  N     -623.897      19.141    -646.689
  N     -624.684      16.168    -646.769
  C     -625.151      15.060    -647.325
  N     -625.528      15.263    -648.635
  O     -632.066      13.285    -647.820
  O     -631.110      11.431    -646.343
  H     -626.199      12.326    -651.230
  H     -632.750      12.582    -647.900
  H     -625.381      19.134    -650.862
  H     -625.240      14.104    -646.824
  H     -626.214      14.778    -650.532
  H     -624.191      13.131    -649.393
  H     -625.709      12.213    -647.733
  H     -627.768      12.098    -650.024
  H     -628.459      10.894    -647.986
  H     -623.880      20.158    -646.707
  H     -623.745      18.616    -645.842
  H     -628.160      12.349    -647.000
  P     -625.432       9.635    -647.973
  C     -627.069       7.769    -648.763
  O     -626.779       8.768    -647.787
  O     -625.404      10.548    -646.653
  O     -624.171       8.867    -648.140
  H     -624.860      10.144    -645.965
  H     -627.986       7.279    -648.510
  H     -626.276       7.051    -648.785
  H     -627.163       8.227    -649.725

 6  7  8  9  10  11  12  13  14  15  25  28  32  33  34  35 0
 6-311+G(2d,p)
 ****
 36  39  40 0
 6-311+G(2d,p)
 ****
 1  2  3  4  5  16  17  18  19  20  21  22  23  24 0
 3-21G
 ****
 26  27  29  30  31  37  38  41  42  43  44  45  46  47  48 0
 3-21G
 ****


