%nproc=1
%NoSave
%Mem=1900MB
#P OB98/GEN NMR

erre ene a

0 1
  C      232.769     -17.285    -144.956
  O      234.141     -17.488    -144.691
  H      232.652     -17.046    -146.017
  H      232.379     -16.452    -144.366
  H      232.201     -18.194    -144.741
  P      234.593     -17.740    -143.171
  C      234.861     -20.293    -143.523
  O      234.143     -19.257    -142.872
  C      234.033     -21.578    -143.537
  O      234.654     -22.584    -144.363
  C      233.863     -22.245    -142.175
  O      232.948     -21.570    -141.327
  C      233.353     -23.609    -142.612
  O      231.971     -23.506    -142.996
  C      234.251     -23.884    -143.845
  N      235.427     -24.694    -143.526
  C      235.843     -25.604    -144.505
  O      235.237     -25.699    -145.573
  N      236.922     -26.414    -144.238
  C      237.515     -26.340    -143.089
  N      238.547     -27.197    -142.858
  C      237.120     -25.384    -142.038
  C      236.076     -24.604    -142.314
  O      234.136     -16.730    -142.168
  O      236.185     -17.887    -143.247
  H      231.735     -24.337    -143.446
  H      236.514     -18.033    -142.326
  H      237.644     -25.367    -141.092
  H      235.715     -23.888    -141.585
  H      233.681     -24.383    -144.636
  H      233.418     -24.366    -141.826
  H      234.832     -22.376    -141.679
  H      233.063     -21.341    -143.994
  H      238.764     -27.866    -143.584
  H      235.806     -20.441    -142.990
  H      238.870     -27.393    -141.916
  H      235.076     -20.012    -144.558
  P      233.217     -21.619    -139.744
  C      235.154     -19.879    -139.722
  O      234.757     -21.224    -139.525
  O      233.178     -23.187    -139.425
  O      232.260     -20.837    -138.900
  H      232.287     -23.464    -139.136
  H      236.204     -19.786    -139.537
  H      234.616     -19.246    -139.048
  H      234.943     -19.589    -140.730

 6  7  8  9  10  11  12  13  14  15  16  26  30  31  32  33  35 0
 6-311+G(2d,p)
 ****
 37  38 0
 6-311+G(2d,p)
 ****
 1  2  3  4  5  17  18  19  20  21  22  23  24  25 0
 3-21G
 ****
 27  28  29  34  36  39  40  41  42  43  44  45  46 0
 3-21G
 ****


