%nproc=1
%NoSave
%Mem=1900MB
#P OB98/GEN NMR

erre ene a

0 1
  C       -4.803    -401.756      19.868
  O       -5.633    -402.833      20.325
  P       -5.266    -403.500      21.733
  C       -6.476    -401.842      23.360
  O       -5.255    -402.299      22.794
  C       -6.274    -401.504      24.838
  O       -5.263    -400.480      24.994
  C       -7.508    -400.952      25.531
  O       -8.453    -401.987      25.792
  C       -6.892    -400.319      26.771
  O       -6.629    -401.322      27.766
  C       -5.561    -399.768      26.213
  N       -5.586    -398.325      26.002
  C       -4.830    -397.565      26.907
  O       -4.209    -398.061      27.840
  N       -4.858    -396.211      26.710
  C       -5.560    -395.552      25.737
  O       -5.526    -394.332      25.595
  C       -6.366    -396.403      24.847
  C       -6.341    -397.725      25.015
  O       -3.723    -403.854      21.516
  O       -6.141    -404.660      22.073
  H       -3.259    -403.195      20.976
  H       -5.997    -401.955      27.359
  H       -4.316    -395.648      27.345
  H       -6.952    -395.913      24.080
  H       -6.939    -398.367      24.377
  H       -4.741    -399.991      26.908
  H       -7.543    -399.575      27.226
  H       -7.972    -400.176      24.905
  H       -5.922    -402.410      25.344
  H       -7.240    -402.621      23.276
  H       -6.830    -400.976      22.795
  P       -9.633    -402.172      24.717
  C       -8.683    -404.175      23.300
  O       -8.955    -402.786      23.398
  O       -9.939    -400.657      24.312
  O      -10.814    -402.931      25.235
  H       -9.142    -400.131      24.174
  H       -8.562    -404.429      22.257
  H       -9.500    -404.761      23.728
  H       -7.755    -404.397      23.843
  H       -5.160    -401.408      18.921
  H       -3.796    -402.101      19.764
  H       -4.834    -400.956      20.578

 3  4  5  6  7  8  9  10  11  12  13  24  28  29  30  31  32 0
 6-311+G(2d,p)
 ****
 33  34 0
 6-311+G(2d,p)
 ****
 1  2  14  15  16  17  18  19  20  21  22  23  25  26  27 0
 3-21G
 ****
 35  36  37  38  39  40  41  42  43  44  45 0
 3-21G
 ****


