%nproc=1
%NoSave
%Mem=1900MB
#P OB98/GEN NMR

erre ene a

0 1
  C       61.508    -392.280      73.451
  O       60.264    -391.690      73.765
  H       61.375    -393.362      73.387
  H       62.231    -392.063      74.241
  H       61.887    -391.918      72.491
  P       60.107    -390.101      73.636
  C       57.903    -389.674      72.366
  O       58.530    -389.800      73.635
  C       56.452    -389.205      72.520
  O       55.648    -390.320      73.006
  C       56.274    -388.045      73.511
  O       55.160    -387.266      73.060
  C       55.918    -388.781      74.788
  O       55.326    -387.919      75.733
  C       55.029    -389.899      74.236
  N       54.866    -391.002      75.179
  C       53.602    -391.166      75.736
  O       52.657    -390.419      75.488
  N       53.466    -392.196      76.623
  C       54.465    -393.022      77.047
  O       54.294    -393.909      77.872
  C       55.792    -392.773      76.461
  C       55.931    -391.792      75.565
  O       60.864    -389.464      72.519
  O       60.566    -389.540      75.063
  H       55.988    -387.272      76.061
  H       60.957    -388.651      74.965
  H       52.553    -392.337      77.024
  H       56.610    -393.403      76.784
  H       56.895    -391.586      75.115
  H       54.028    -389.512      73.995
  H       56.816    -389.204      75.251
  H       57.163    -387.420      73.608
  H       56.063    -388.942      71.529
  H       57.926    -390.655      71.879
  H       58.460    -388.959      71.753
  P       55.310    -386.131      71.933
  C       53.593    -387.048      70.244
  O       53.916    -385.996      71.151
  O       56.497    -386.307      71.044
  O       55.413    -384.759      72.748
  H       55.928    -384.108      72.235
  H       52.647    -386.847      69.787
  H       53.542    -387.975      70.776
  H       54.348    -387.112      69.488

 6  7  8  9  10  11  12  13  14  15  16  26  31  32  33  34  35 0
 6-311+G(2d,p)
 ****
 36  37 0
 6-311+G(2d,p)
 ****
 1  2  3  4  5  17  18  19  20  21  22  23  24  25 0
 3-21G
 ****
 27  28  29  30  38  39  40  41  42  43  44  45 0
 3-21G
 ****


