%nproc=1
%NoSave
%Mem=1900MB
#P OB98/GEN NMR

erre ene a

0 1
  C      101.202    -327.709    -197.582
  O      102.251    -328.629    -197.803
  H      101.634    -326.733    -197.343
  H      100.576    -328.030    -196.744
  H      100.589    -327.603    -198.484
  P      101.883    -330.157    -198.109
  C      101.855    -332.315    -196.686
  O      101.745    -330.892    -196.686
  C      101.955    -332.834    -195.247
  O      103.201    -332.343    -194.684
  C      100.795    -332.339    -194.363
  O      100.118    -333.401    -193.683
  C      101.445    -331.258    -193.505
  O      100.823    -331.042    -192.259
  C      102.908    -331.718    -193.419
  N      103.853    -330.635    -193.155
  C      103.618    -329.845    -192.027
  O      102.701    -330.009    -191.222
  N      104.519    -328.831    -191.819
  C      105.581    -328.522    -192.617
  O      106.355    -327.602    -192.374
  C      105.758    -329.371    -193.804
  C      104.904    -330.374    -194.015
  O      102.770    -330.854    -199.090
  O      100.367    -330.096    -198.626
  H      101.222    -330.241    -191.862
  H      100.350    -330.186    -199.597
  H      104.367    -328.262    -191.000
  H      106.589    -329.150    -194.463
  H      105.004    -331.018    -194.883
  H      103.031    -332.466    -192.633
  H      101.397    -330.314    -194.057
  H      100.002    -331.885    -194.972
  H      102.015    -333.930    -195.271
  H      102.755    -332.581    -197.251
  H      100.977    -332.748    -197.180
  P       98.609    -333.831    -193.966
  C       96.239    -333.016    -193.161
  O       97.646    -332.792    -193.214
  O       98.303    -335.282    -193.776
  O       98.398    -333.487    -195.527
  H       97.772    -334.151    -195.880
  H       95.771    -332.220    -192.621
  H       96.044    -333.945    -192.667
  H       95.846    -333.051    -194.155

 6  7  8  9  10  11  12  13  14  15  16  26  31  32  33  34  35 0
 6-311+G(2d,p)
 ****
 36  37 0
 6-311+G(2d,p)
 ****
 1  2  3  4  5  17  18  19  20  21  22  23  24  25 0
 3-21G
 ****
 27  28  29  30  38  39  40  41  42  43  44  45 0
 3-21G
 ****


