%nproc=1
%NoSave
%Mem=1900MB
#P OB98/GEN NMR

erre ene a

0 1
  C      273.906     244.593    1402.299
  O      275.057     245.079    1401.620
  H      273.985     244.869    1403.362
  H      273.851     243.510    1402.225
  H      273.006     245.064    1401.892
  P      275.127     244.956    1400.033
  C      275.488     242.395    1399.961
  O      276.039     243.684    1399.703
  C      276.024     241.380    1398.966
  O      275.480     241.646    1397.631
  C      277.547     241.418    1398.795
  O      278.198     240.787    1399.897
  C      277.716     240.713    1397.473
  O      277.658     239.276    1397.632
  C      276.493     241.229    1396.679
  N      276.824     242.329    1395.755
  C      277.759     242.022    1394.742
  O      278.312     240.927    1394.657
  N      278.064     243.040    1393.888
  C      277.607     244.336    1393.999
  O      277.981     245.234    1393.271
  C      276.659     244.594    1395.088
  C      276.303     243.588    1395.903
  O      275.489     246.199    1399.297
  O      273.654     244.445    1399.636
  H      278.328     239.055    1398.310
  H      273.141     245.196    1399.238
  H      278.727     242.853    1393.169
  H      276.274     245.601    1395.209
  H      275.612     243.777    1396.715
  H      276.047     240.412    1396.090
  H      278.675     240.942    1396.990
  H      277.901     242.458    1398.698
  H      275.694     240.352    1399.269
  H      274.388     242.456    1399.863
  H      275.726     242.105    1400.995
  P      279.283     241.589    1400.755
  C      281.006     240.841    1399.021
  O      280.723     241.002    1400.389
  O      278.982     241.721    1402.214
  O      279.306     243.060    1400.069
  H      279.038     243.717    1400.725
  H      281.993     240.444    1398.905
  H      280.944     241.790    1398.530
  H      280.297     240.167    1398.587

 6  7  8  9  10  11  12  13  14  15  16  26  31  32  33  34  35 0
 6-311+G(2d,p)
 ****
 36  37 0
 6-311+G(2d,p)
 ****
 1  2  3  4  5  17  18  19  20  21  22  23  24  25 0
 3-21G
 ****
 27  28  29  30  38  39  40  41  42  43  44  45 0
 3-21G
 ****


