%nproc=1
%NoSave
%Mem=1900MB
#P OB98/GEN NMR

erre ene a

0 1
  C       57.555      15.365     -74.230
  O       56.569      16.032     -73.460
  P       55.192      16.426     -74.186
  C       54.558      18.442     -75.753
  O       55.403      17.915     -74.742
  C       54.389      19.953     -75.562
  O       53.692      20.216     -74.326
  C       55.695      20.730     -75.467
  O       56.295      20.914     -76.739
  C       55.225      22.015     -74.795
  O       54.626      22.894     -75.762
  C       54.152      21.488     -73.819
  N       54.633      21.367     -72.443
  C       54.577      22.522     -71.670
  O       54.151      23.597     -72.092
  N       55.049      22.405     -70.389
  C       55.617      21.292     -69.840
  O       56.064      21.253     -68.701
  C       55.679      20.111     -70.718
  C       55.193      20.203     -71.958
  O       54.230      16.595     -72.920
  O       54.750      15.416     -75.189
  H       54.725      16.848     -72.120
  H       54.300      23.670     -75.265
  H       54.997      23.223     -69.799
  H       56.132      19.213     -70.320
  H       55.238      19.347     -72.620
  H       53.278      22.152     -73.822
  H       56.043      22.564     -74.313
  H       56.394      20.206     -74.803
  H       53.774      20.334     -76.388
  H       53.583      17.953     -75.694
  H       55.000      18.228     -76.733
  P       57.869      20.584     -76.846
  C       59.970      21.672     -75.738
  O       58.630      21.810     -76.151
  O       58.122      20.794     -78.413
  O       58.234      19.229     -76.335
  H       57.669      21.577     -78.768
  H       60.410      22.669     -75.632
  H       60.557      21.104     -76.466
  H       60.004      21.168     -74.770
  H       58.411      15.168     -73.619
  H       57.841      15.983     -75.056
  H       57.157      14.442     -74.596

 3  4  5  6  7  8  9  10  11  12  13  24  28  29  30  31  32 0
 6-311+G(2d,p)
 ****
 33  34 0
 6-311+G(2d,p)
 ****
 1  2  14  15  16  17  18  19  20  21  22  23  25  26  27 0
 3-21G
 ****
 35  36  37  38  39  40  41  42  43  44  45 0
 3-21G
 ****


