%nproc=1
%NoSave
%Mem=1900MB
#P OB98/GEN NMR

erre ene a

0 1
  C     -215.403     485.938    -662.469
  O     -216.182     484.803    -662.798
  H     -215.125     486.451    -663.394
  H     -214.491     485.634    -661.948
  H     -215.981     486.624    -661.844
  P     -216.672     483.891    -661.567
  C     -218.555     485.664    -661.416
  O     -217.678     484.807    -660.712
  C     -219.912     485.738    -660.712
  O     -220.566     484.451    -660.729
  C     -219.838     486.170    -659.254
  O     -219.764     487.580    -659.142
  C     -221.141     485.603    -658.708
  O     -222.263     486.463    -659.017
  C     -221.253     484.270    -659.461
  N     -222.343     480.149    -656.755
  C     -223.177     481.042    -657.393
  N     -224.510     480.839    -657.236
  N     -222.756     482.051    -658.101
  C     -221.406     482.150    -658.136
  C     -220.472     481.318    -657.564
  C     -220.960     480.182    -656.808
  O     -220.269     479.316    -656.275
  N     -219.197     481.733    -657.846
  C     -219.360     482.841    -658.551
  N     -220.683     483.141    -658.739
  O     -215.372     483.800    -660.630
  O     -217.180     482.539    -661.935
  H     -222.015     487.388    -658.840
  H     -215.384     482.944    -660.161
  H     -222.729     479.377    -656.234
  H     -218.555     483.448    -658.933
  H     -222.292     484.009    -659.685
  H     -221.119     485.509    -657.621
  H     -224.876     480.307    -656.460
  H     -218.993     485.689    -658.747
  H     -225.130     481.504    -657.680
  H     -220.545     486.424    -661.286
  H     -218.706     485.272    -662.431
  H     -218.119     486.665    -661.480
  P     -219.340     488.197    -657.722
  C     -216.851     487.478    -658.017
  O     -218.040     487.380    -657.243
  O     -220.490     487.676    -656.739
  O     -219.211     489.689    -657.695
  H     -220.487     488.194    -655.913
  H     -216.084     486.881    -657.570
  H     -216.533     488.499    -658.054
  H     -217.042     487.128    -659.010

 6  7  8  9  10  11  12  13  14  15  26  29  33  34 0
 6-311+G(2d,p)
 ****
 36  38  39  40  41 0
 6-311+G(2d,p)
 ****
 1  2  3  4  5  16  17  18  19  20  21  22  23  24  25 0
 3-21G
 ****
 27  28  30  31  32  35  37  42  43  44  45  46  47 0
 3-21G
 ****
 48  49 0
 3-21G
 ****


