%nproc=1
%NoSave
%Mem=1900MB
#P OB98/GEN NMR

erre ene a

0 1
  C     -140.090    -951.672     217.824
  O     -140.795    -952.867     217.572
  H     -140.748    -950.988     218.374
  H     -139.797    -951.190     216.887
  H     -139.205    -951.866     218.432
  P     -140.042    -954.032     216.759
  C     -139.786    -955.346     218.981
  O     -139.124    -954.789     217.847
  C     -139.629    -956.856     218.996
  O     -138.236    -957.211     219.047
  C     -140.299    -957.530     220.197
  O     -141.692    -957.697     219.953
  C     -139.542    -958.859     220.215
  O     -140.035    -959.718     219.174
  C     -138.110    -958.397     219.898
  N     -134.975    -960.162     223.474
  C     -135.641    -960.841     222.471
  N     -135.498    -962.175     222.451
  N     -136.413    -960.253     221.590
  C     -136.529    -958.919     221.779
  C     -135.915    -958.139     222.733
  C     -135.029    -958.792     223.676
  O     -134.389    -958.222     224.573
  N     -136.317    -956.821     222.656
  C     -137.131    -956.804     221.628
  N     -137.300    -958.051     221.055
  O     -139.299    -953.616     215.527
  O     -141.193    -955.094     216.442
  H     -139.430    -960.486     219.143
  H     -141.595    -954.931     215.570
  H     -134.410    -960.672     224.125
  H     -137.621    -955.921     221.231
  H     -137.552    -959.143     219.329
  H     -139.649    -959.393     221.158
  H     -135.167    -962.698     223.250
  H     -140.092    -957.005     221.125
  H     -136.033    -962.702     221.752
  H     -140.022    -957.250     218.048
  H     -140.840    -955.066     218.914
  H     -139.367    -954.913     219.900
  P     -142.714    -957.975     221.166
  C     -143.933    -955.709     220.887
  O     -143.103    -956.528     221.721
  O     -142.191    -958.923     222.206
  O     -144.063    -958.464     220.454
  H     -144.094    -959.439     220.301
  H     -144.116    -954.774     221.374
  H     -144.863    -956.207     220.710
  H     -143.439    -955.534     219.954

 6  7  8  9  10  11  12  13  14  15  26  29  33  34 0
 6-311+G(2d,p)
 ****
 36  38  39  40  41 0
 6-311+G(2d,p)
 ****
 1  2  3  4  5  16  17  18  19  20  21  22  23  24  25 0
 3-21G
 ****
 27  28  30  31  32  35  37  42  43  44  45  46  47 0
 3-21G
 ****
 48  49 0
 3-21G
 ****


