%nproc=1
%NoSave
%Mem=1900MB
#P OB98/GEN NMR

erre ene a

0 1
  C     -132.408    -282.576     188.039
  O     -131.639    -281.470     187.620
  H     -132.720    -283.140     187.155
  H     -133.301    -282.226     188.562
  H     -131.835    -283.238     188.692
  P     -130.689    -280.746     188.684
  C     -132.233    -278.691     188.930
  O     -131.597    -279.776     189.590
  C     -132.160    -277.404     189.753
  O     -132.954    -277.547     190.951
  C     -130.732    -277.080     190.206
  O     -129.972    -276.334     189.269
  C     -130.982    -276.272     191.478
  O     -131.140    -274.874     191.183
  C     -132.291    -276.858     192.023
  N     -132.605    -277.599     197.072
  C     -132.766    -276.426     196.353
  N     -133.001    -275.314     197.087
  N     -132.681    -276.364     195.053
  C     -132.343    -277.534     194.468
  C     -132.137    -278.755     195.075
  C     -132.301    -278.832     196.513
  O     -132.186    -279.850     197.193
  N     -131.765    -279.717     194.168
  C     -131.659    -279.056     193.030
  N     -132.078    -277.748     193.149
  O     -129.857    -279.701     187.790
  O     -129.759    -281.650     189.440
  H     -131.773    -274.792     190.445
  H     -128.971    -279.577     188.176
  H     -132.708    -277.591     198.071
  H     -131.334    -279.482     192.090
  H     -132.971    -276.069     192.361
  H     -130.135    -276.356     192.167
  H     -132.990    -275.292     198.091
  H     -130.197    -277.994     190.484
  H     -132.937    -274.406     196.617
  H     -132.595    -276.576     189.176
  H     -133.276    -278.983     188.786
  H     -131.795    -278.539     187.940
  P     -128.376    -276.405     189.265
  C     -127.683    -275.158     191.472
  O     -127.867    -276.374     190.774
  O     -127.952    -274.971     188.704
  O     -127.785    -277.517     188.464
  H     -127.741    -275.019     187.751
  H     -127.339    -275.365     192.464
  H     -128.612    -274.630     191.520
  H     -126.959    -274.559     190.961

 6  7  8  9  10  11  12  13  14  15  26  29  33  34 0
 6-311+G(2d,p)
 ****
 36  38  39  40  41 0
 6-311+G(2d,p)
 ****
 1  2  3  4  5  16  17  18  19  20  21  22  23  24  25 0
 3-21G
 ****
 27  28  30  31  32  35  37  42  43  44  45  46  47 0
 3-21G
 ****
 48  49 0
 3-21G
 ****


