%nproc=1
%NoSave
%Mem=1900MB
#P OB98/GEN NMR

erre ene a

0 1
  C      420.402    1530.321    -424.538
  O      419.338    1530.077    -423.641
  H      420.966    1529.392    -424.666
  H      421.064    1531.080    -424.138
  H      420.020    1530.636    -425.517
  P      418.258    1531.234    -423.387
  C      416.310    1529.537    -423.316
  O      416.843    1530.698    -423.932
  C      414.770    1529.564    -423.351
  O      414.303    1530.694    -422.577
  C      414.206    1529.701    -424.785
  O      413.028    1528.901    -424.881
  C      413.851    1531.169    -424.876
  O      412.812    1531.412    -425.806
  C      413.471    1531.491    -423.438
  N      411.431    1535.469    -421.054
  C      411.041    1534.134    -421.073
  N      409.921    1533.828    -420.372
  N      411.679    1533.205    -421.727
  C      412.775    1533.660    -422.371
  C      413.263    1534.939    -422.423
  C      412.547    1535.972    -421.717
  O      412.836    1537.166    -421.680
  N      414.418    1534.998    -423.196
  C      414.589    1533.756    -423.610
  N      413.643    1532.913    -423.135
  O      418.647    1532.586    -423.882
  O      418.047    1531.238    -421.807
  H      412.029    1530.889    -425.539
  H      418.489    1532.007    -421.388
  H      410.906    1536.141    -420.548
  H      415.410    1533.427    -424.235
  H      412.423    1531.256    -423.210
  H      414.727    1531.749    -425.175
  H      409.404    1534.492    -419.821
  H      414.920    1529.389    -425.543
  H      409.631    1532.864    -420.336
  H      414.397    1528.646    -422.870
  H      416.651    1529.530    -422.277
  H      416.688    1528.650    -423.815
  P      413.158    1527.299    -424.967
  C      412.210    1526.682    -422.656
  O      413.370    1526.723    -423.483
  O      414.128    1526.809    -425.995
  O      411.661    1526.833    -425.319
  H      411.706    1526.063    -425.903
  H      412.469    1526.283    -421.698
  H      411.468    1526.060    -423.112
  H      411.821    1527.672    -422.537

 6  7  8  9  10  11  12  13  14  15  26  29  33  34 0
 6-311+G(2d,p)
 ****
 36  38  39  40  41 0
 6-311+G(2d,p)
 ****
 1  2  3  4  5  16  17  18  19  20  21  22  23  24  25 0
 3-21G
 ****
 27  28  30  31  32  35  37  42  43  44  45  46  47 0
 3-21G
 ****
 48  49 0
 3-21G
 ****


