%nproc=1
%NoSave
%Mem=1900MB
#P OB98/GEN NMR

erre ene a

0 1
  C      -87.118     -22.992      11.526
  O      -86.485     -23.665      10.433
  P      -87.326     -24.483       9.338
  C      -86.233     -23.308       7.328
  O      -86.521     -24.562       7.944
  C      -85.512     -23.453       5.981
  O      -84.164     -23.972       6.165
  C      -86.204     -24.376       4.967
  O      -85.893     -23.849       3.677
  C      -85.481     -25.694       5.193
  O      -85.626     -26.611       4.113
  C      -84.061     -25.202       5.420
  N      -80.835     -29.150       4.897
  C      -81.332     -28.275       4.000
  N      -82.156     -27.228       4.217
  C      -82.428     -27.092       5.526
  C      -81.978     -27.899       6.562
  C      -81.154     -28.981       6.204
  N      -80.679     -29.905       7.109
  N      -82.494     -27.474       7.773
  C      -83.242     -26.432       7.473
  N      -83.231     -26.157       6.124
  O      -88.749     -24.028       9.192
  O      -87.296     -26.001       9.866
  H      -86.548     -26.929       4.109
  H      -88.195     -26.378       9.808
  H      -81.038     -28.443       2.965
  H      -83.832     -25.853       8.174
  H      -83.567     -24.971       4.462
  H      -85.890     -26.177       6.093
  H      -87.286     -24.446       5.114
  H      -85.400     -22.443       5.561
  H      -85.613     -22.718       8.012
  H      -80.164     -30.701       6.740
  H      -81.008     -29.873       8.063
  H      -87.176     -22.761       7.184
  P      -86.994     -23.075       2.790
  C      -85.466     -21.043       2.470
  O      -86.188     -22.081       1.826
  O      -88.094     -22.432       3.576
  O      -87.557     -24.187       1.787
  H      -88.420     -23.899       1.434
  H      -86.155     -20.263       2.796
  H      -84.751     -20.619       1.762
  H      -84.914     -21.424       3.339
  H      -86.375     -22.514      12.129
  H      -87.656     -23.702      12.119
  H      -87.797     -22.257      11.147

 3  4  5  6  7  8  9  10  11  12  22  25  29  30  31  32 0
 6-311+G(2d,p)
 ****
 33  36  37 0
 6-311+G(2d,p)
 ****
 1  2  13  14  15  16  17  18  19  20  21  23  24  26 0
 3-21G
 ****
 27  28  34  35  38  39  40  41  42  43  44  45  46  47  48 0
 3-21G
 ****


