%nproc=1
%NoSave
%Mem=1900MB
#P OB98/GEN NMR

erre ene a

0 1
  C     -711.917     112.262    -115.726
  O     -712.740     111.271    -115.134
  H     -712.262     112.437    -116.746
  H     -710.884     111.913    -115.759
  H     -711.970     113.206    -115.176
  P     -712.640     111.036    -113.548
  C     -711.061     109.083    -114.133
  O     -712.165     109.511    -113.355
  C     -710.888     107.558    -114.039
  O     -710.599     107.199    -112.666
  C     -712.126     106.772    -114.481
  O     -711.669     105.520    -115.036
  C     -712.818     106.520    -113.154
  O     -713.768     105.480    -113.234
  C     -711.606     106.264    -112.242
  N     -711.945     106.405    -110.823
  C     -712.418     105.262    -110.175
  O     -712.595     104.188    -110.756
  N     -712.730     105.404    -108.864
  C     -712.674     106.570    -108.143
  O     -713.000     106.651    -106.965
  C     -712.205     107.743    -108.883
  C     -711.863     107.617    -110.174
  O     -713.850     111.416    -112.764
  O     -711.349     111.867    -113.101
  H     -714.242     105.383    -112.383
  H     -711.458     112.179    -112.183
  H     -713.065     104.586    -108.379
  H     -712.155     108.688    -108.350
  H     -711.507     108.465    -110.739
  H     -711.219     105.249    -112.402
  H     -713.356     107.425    -112.824
  H     -712.747     107.305    -115.198
  H     -710.007     107.272    -114.633
  H     -710.161     109.582    -113.753
  H     -711.220     109.382    -115.172
  P     -711.439     105.333    -116.610
  C     -713.959     105.121    -117.083
  O     -712.679     104.510    -117.218
  O     -710.089     104.768    -116.963
  O     -711.611     106.795    -117.237
  H     -711.084     106.880    -118.051
  H     -714.704     104.489    -117.520
  H     -713.957     106.068    -117.582
  H     -714.178     105.265    -116.046

 6  7  8  9  10  11  12  13  14  15  16  26  31  32  33  34  35 0
 6-311+G(2d,p)
 ****
 36  37 0
 6-311+G(2d,p)
 ****
 1  2  3  4  5  17  18  19  20  21  22  23  24  25 0
 3-21G
 ****
 27  28  29  30  38  39  40  41  42  43  44  45 0
 3-21G
 ****


