%nproc=1
%NoSave
%Mem=1900MB
#P OB98/GEN NMR

erre ene a

0 1
  C      102.920    -277.333     218.932
  O      102.814    -278.007     217.685
  P      101.944    -279.355     217.633
  C      103.149    -280.974     219.283
  O      102.951    -280.567     217.940
  C      104.119    -282.160     219.347
  O      104.293    -282.540     220.740
  C      103.656    -283.414     218.590
  O      104.834    -284.066     218.102
  C      103.017    -284.256     219.683
  O      102.950    -285.637     219.337
  C      103.937    -283.935     220.858
  N      103.215    -287.280     224.589
  C      103.873    -287.430     223.379
  N      104.473    -288.627     223.167
  N      103.940    -286.500     222.467
  C      103.307    -285.353     222.829
  C      102.591    -285.096     223.977
  C      102.558    -286.121     224.994
  O      102.064    -286.006     226.111
  N      102.021    -283.852     223.946
  C      102.456    -283.326     222.819
  N      103.282    -284.178     222.130
  O      101.623    -279.512     216.076
  O      100.706    -279.362     218.479
  H      102.710    -286.139     220.148
  H      100.758    -279.115     215.850
  H      103.214    -288.030     225.261
  H      102.220    -282.340     222.452
  H      104.863    -284.528     220.842
  H      101.996    -283.905     219.874
  H      104.488    -289.378     223.838
  H      102.969    -283.197     217.770
  H      104.988    -288.753     222.299
  H      105.093    -281.830     218.976
  H      102.187    -281.291     219.704
  H      103.526    -280.130     219.873
  P      104.843    -284.552     216.572
  C      104.650    -287.086     217.078
  O      105.432    -286.037     216.542
  O      106.025    -283.673     215.931
  O      103.557    -284.335     215.837
  H      105.825    -283.483     214.997
  H      104.976    -288.034     216.638
  H      103.582    -286.947     216.862
  H      104.793    -287.133     218.163
  H      103.525    -276.458     218.814
  H      103.370    -277.984     219.652
  H      101.945    -277.049     219.268

 3  4  5  6  7  8  9  10  11  12  23  26  30  31 0
 6-311+G(2d,p)
 ****
 33  35  36  37  38 0
 6-311+G(2d,p)
 ****
 1  2  13  14  15  16  17  18  19  20  21  22  24  25 0
 3-21G
 ****
 27  28  29  32  34  39  40  41  42  43  44  45  46  47  48  49 0
 3-21G
 ****


