%nproc=1
%NoSave
%Mem=1900MB
#P OB98/GEN NMR

erre ene a

0 1
  C      367.901    -675.437    -803.841
  O      368.407    -676.291    -804.849
  P      369.925    -676.072    -805.319
  C      369.985    -678.671    -805.528
  O      370.420    -677.416    -806.055
  C      370.027    -679.756    -806.602
  O      369.087    -679.406    -807.678
  C      371.417    -679.943    -807.248
  O      371.573    -681.340    -807.582
  C      371.305    -679.174    -808.542
  O      372.249    -679.649    -809.514
  C      369.837    -679.422    -808.919
  N      366.159    -678.390    -812.222
  C      366.221    -679.374    -811.247
  N      365.182    -680.245    -811.239
  N      367.178    -679.471    -810.392
  C      368.146    -678.532    -810.535
  C      368.187    -677.492    -811.442
  C      367.109    -677.384    -812.396
  O      367.012    -676.542    -813.293
  N      369.305    -676.709    -811.265
  C      369.980    -677.308    -810.298
  N      369.305    -678.423    -809.841
  O      370.751    -676.092    -803.934
  O      370.154    -674.802    -806.080
  H      373.129    -679.396    -809.189
  H      371.015    -675.166    -803.703
  H      365.391    -678.340    -812.858
  H      370.921    -676.973    -809.882
  H      369.705    -680.393    -809.384
  H      371.502    -678.133    -808.355
  H      364.432    -680.250    -811.919
  H      372.249    -679.618    -806.617
  H      365.230    -681.014    -810.565
  H      369.655    -680.684    -806.158
  H      368.981    -678.569    -805.149
  H      370.642    -678.954    -804.687
  P      373.082    -681.933    -807.419
  C      372.072    -684.111    -808.417
  O      373.157    -683.198    -808.378
  O      373.061    -682.549    -805.942
  O      374.147    -680.899    -807.592
  H      373.961    -682.573    -805.586
  H      371.628    -684.112    -809.407
  H      371.308    -683.889    -807.661
  H      372.473    -685.120    -808.180
  H      366.885    -675.697    -803.630
  H      367.947    -674.422    -804.177
  H      368.488    -675.546    -802.953

 3  4  5  6  7  8  9  10  11  12  23  26  30  31 0
 6-311+G(2d,p)
 ****
 33  35  36  37  38 0
 6-311+G(2d,p)
 ****
 1  2  13  14  15  16  17  18  19  20  21  22  24  25 0
 3-21G
 ****
 27  28  29  32  34  39  40  41  42  43  44  45  46  47  48  49 0
 3-21G
 ****


