%nproc=1
%NoSave
%Mem=1900MB
#P OB98/GEN NMR

erre ene a

0 1
  C     -226.932    -166.832    -111.459
  O     -226.730    -166.410    -112.793
  H     -227.924    -166.533    -111.111
  H     -226.856    -167.921    -111.420
  H     -226.164    -166.400    -110.810
  P     -226.909    -164.841    -113.077
  C     -229.141    -164.071    -114.147
  O     -228.483    -164.538    -112.978
  C     -229.650    -165.249    -114.968
  O     -230.330    -166.195    -114.119
  C     -230.661    -164.883    -116.050
  O     -230.034    -164.343    -117.201
  C     -231.275    -166.247    -116.332
  O     -230.413    -166.994    -117.211
  C     -231.298    -166.897    -114.941
  N     -234.533    -169.283    -111.746
  C     -233.300    -169.613    -112.192
  N     -232.505    -168.938    -113.047
  C     -233.090    -167.797    -113.444
  C     -234.341    -167.330    -113.074
  C     -235.083    -168.130    -112.188
  N     -236.348    -167.792    -111.753
  N     -234.603    -166.114    -113.669
  C     -233.531    -165.850    -114.387
  N     -232.591    -166.842    -114.288
  O     -226.607    -164.709    -114.646
  O     -226.029    -163.941    -112.275
  H     -230.249    -166.431    -117.988
  H     -226.150    -163.863    -114.810
  H     -232.893    -170.545    -111.805
  H     -233.389    -164.956    -114.985
  H     -230.980    -167.945    -114.981
  H     -232.256    -166.187    -116.811
  H     -231.436    -164.214    -115.660
  H     -228.779    -165.755    -115.407
  H     -228.439    -163.487    -114.752
  H     -236.741    -168.298    -110.978
  H     -236.747    -166.922    -112.085
  H     -229.975    -163.426    -113.849
  P     -230.959    -163.532    -118.238
  C     -231.155    -164.942    -120.406
  O     -231.696    -164.648    -119.121
  O     -229.897    -162.897    -119.253
  O     -231.835    -162.493    -117.624
  H     -230.271    -162.094    -119.664
  H     -231.746    -165.700    -120.877
  H     -230.149    -165.289    -120.298
  H     -231.164    -164.057    -121.008

 6  7  8  9  10  11  12  13  14  15  25  28  32  33  34  35 0
 6-311+G(2d,p)
 ****
 36  39  40 0
 6-311+G(2d,p)
 ****
 1  2  3  4  5  16  17  18  19  20  21  22  23  24 0
 3-21G
 ****
 26  27  29  30  31  37  38  41  42  43  44  45  46  47  48 0
 3-21G
 ****


