%nproc=1
%NoSave
%Mem=1900MB
#P OB98/GEN NMR

erre ene a

0 1
  C      -63.994     -29.670       2.352
  O      -64.235     -28.661       1.365
  P      -63.739     -27.170       1.677
  C      -66.146     -26.566       2.454
  O      -65.020     -26.206       1.669
  C      -66.600     -25.377       3.307
  O      -65.616     -25.027       4.304
  C      -66.850     -24.107       2.502
  O      -68.143     -24.104       1.908
  C      -66.778     -23.049       3.593
  O      -68.027     -23.003       4.313
  C      -65.662     -23.591       4.497
  N      -62.226     -20.160       5.924
  C      -63.448     -20.483       6.484
  N      -63.802     -19.799       7.592
  N      -64.245     -21.398       6.003
  C      -63.755     -22.015       4.902
  C      -62.564     -21.785       4.254
  C      -61.693     -20.758       4.788
  O      -60.605     -20.421       4.330
  N      -62.417     -22.603       3.169
  C      -63.506     -23.347       3.166
  N      -64.360     -23.014       4.190
  O      -62.980     -26.760       0.328
  O      -62.845     -27.058       2.868
  H      -68.306     -23.929       4.450
  H      -62.288     -26.101       0.523
  H      -61.649     -19.446       6.334
  H      -63.724     -24.131       2.453
  H      -65.854     -23.405       5.559
  H      -66.608     -22.048       3.192
  H      -63.211     -19.118       8.048
  H      -66.054     -23.943       1.762
  H      -64.677     -20.045       8.036
  H      -67.528     -25.661       3.822
  H      -65.906     -27.414       3.100
  H      -66.945     -26.913       1.793
  P      -68.291     -24.729       0.437
  C      -67.915     -22.442      -0.731
  O      -68.785     -23.530      -0.502
  O      -69.582     -25.666       0.583
  O      -67.102     -25.492      -0.040
  H      -69.502     -26.432      -0.015
  H      -68.346     -21.810      -1.514
  H      -66.934     -22.790      -1.061
  H      -67.811     -21.843       0.180
  H      -64.378     -30.607       2.006
  H      -64.483     -29.400       3.265
  H      -62.941     -29.757       2.523

 3  4  5  6  7  8  9  10  11  12  23  26  30  31 0
 6-311+G(2d,p)
 ****
 33  35  36  37  38 0
 6-311+G(2d,p)
 ****
 1  2  13  14  15  16  17  18  19  20  21  22  24  25 0
 3-21G
 ****
 27  28  29  32  34  39  40  41  42  43  44  45  46  47  48  49 0
 3-21G
 ****


