%nproc=1
%NoSave
%Mem=1900MB
#P OB98/GEN NMR

erre ene a

0 1
  C     -411.352     220.263    -586.056
  O     -412.129     219.844    -584.930
  P     -412.162     218.264    -584.594
  C     -414.714     218.103    -584.041
  O     -413.379     217.994    -583.569
  C     -415.691     218.202    -582.876
  O     -415.469     217.154    -581.884
  C     -415.588     219.513    -582.088
  O     -416.306     220.549    -582.739
  C     -416.261     219.121    -580.788
  O     -417.688     219.166    -580.943
  C     -415.800     217.677    -580.578
  N     -414.085     218.023    -575.756
  C     -415.312     218.230    -576.317
  N     -415.674     218.133    -577.607
  C     -414.643     217.753    -578.366
  C     -413.337     217.510    -577.944
  C     -413.081     217.656    -576.585
  N     -411.826     217.414    -576.032
  N     -412.551     217.155    -579.018
  C     -413.364     217.179    -580.069
  N     -414.629     217.554    -579.721
  O     -410.851     218.069    -583.679
  O     -412.132     217.381    -585.790
  H     -418.089     218.795    -580.136
  H     -410.470     217.198    -583.850
  H     -416.112     218.524    -575.603
  H     -413.072     216.943    -581.081
  H     -416.589     217.046    -580.165
  H     -416.020     219.796    -579.965
  H     -414.540     219.780    -581.917
  H     -416.715     218.081    -583.279
  H     -414.958     217.237    -584.671
  H     -411.731     217.527    -575.018
  H     -411.073     217.133    -576.632
  H     -414.792     218.981    -584.689
  P     -415.516     221.911    -583.033
  C     -416.842     224.077    -582.434
  O     -416.633     223.014    -583.351
  O     -414.828     221.635    -584.467
  O     -414.498     222.297    -582.002
  H     -413.985     222.127    -584.533
  H     -417.399     224.875    -582.939
  H     -415.878     224.476    -582.081
  H     -417.412     223.716    -581.579
  H     -411.420     221.326    -586.161
  H     -411.725     219.793    -586.942
  H     -410.330     219.984    -585.908

 3  4  5  6  7  8  9  10  11  12  22  25  29  30  31  32 0
 6-311+G(2d,p)
 ****
 33  36  37 0
 6-311+G(2d,p)
 ****
 1  2  13  14  15  16  17  18  19  20  21  23  24  26 0
 3-21G
 ****
 27  28  34  35  38  39  40  41  42  43  44  45  46  47  48 0
 3-21G
 ****


