%nproc=1
%NoSave
%Mem=1900MB
#P OB98/GEN NMR

erre ene a

0 1
  C     -187.171    -320.536     820.074
  O     -187.541    -319.566     821.029
  P     -187.149    -318.026     820.825
  C     -189.511    -317.424     821.666
  O     -188.528    -317.215     820.646
  C     -190.903    -317.173     821.099
  O     -191.334    -318.275     820.253
  C     -191.992    -317.075     822.162
  O     -191.946    -315.973     823.046
  C     -193.245    -317.234     821.313
  O     -193.609    -315.994     820.688
  C     -192.786    -318.269     820.260
  N     -193.341    -319.597     820.514
  C     -194.585    -319.855     819.954
  O     -195.212    -319.031     819.285
  N     -195.114    -321.090     820.218
  C     -194.562    -322.050     821.005
  O     -195.110    -323.108     821.244
  C     -193.247    -321.714     821.589
  C     -192.705    -320.523     821.323
  O     -186.133    -317.766     819.756
  O     -186.673    -317.570     822.297
  H     -193.860    -315.371     821.396
  H     -187.351    -317.657     822.978
  H     -196.024    -321.291     819.835
  H     -192.771    -322.465     822.213
  H     -191.728    -320.253     821.740
  H     -193.096    -317.951     819.254
  H     -194.105    -317.548     821.915
  H     -191.933    -317.968     822.800
  H     -190.873    -316.278     820.472
  H     -189.321    -316.715     822.483
  H     -189.412    -318.439     822.072
  P     -191.432    -316.075     824.558
  C     -189.146    -314.874     824.301
  O     -189.830    -316.083     824.552
  O     -192.129    -317.068     825.435
  O     -191.750    -314.589     825.099
  H     -191.952    -314.638     826.054
  H     -188.066    -315.074     824.299
  H     -189.352    -314.143     825.094
  H     -189.430    -314.459     823.333
  H     -187.522    -321.497     820.387
  H     -186.105    -320.558     819.982
  H     -187.606    -320.289     819.128

 3  4  5  6  7  8  9  10  11  12  13  23  28  29  30  31  32 0
 6-311+G(2d,p)
 ****
 33  34 0
 6-311+G(2d,p)
 ****
 1  2  14  15  16  17  18  19  20  21  22  24  25  26  27 0
 3-21G
 ****
 35  36  37  38  39  40  41  42  43  44  45 0
 3-21G
 ****


