%nproc=1
%NoSave
%Mem=1900MB
#P OB98/GEN NMR

erre ene a

0 1
  C     -114.386    -128.115     120.805
  O     -115.164    -127.188     121.568
  P     -114.370    -125.912     122.144
  C     -114.278    -126.723     124.607
  O     -113.540    -126.394     123.440
  C     -113.580    -126.227     125.875
  O     -114.449    -126.351     127.039
  C     -112.279    -126.979     126.198
  O     -111.380    -126.033     126.789
  C     -112.726    -127.965     127.273
  O     -111.623    -128.469     128.017
  C     -113.704    -127.079     128.049
  N     -113.980    -129.852     132.256
  C     -112.878    -129.327     131.610
  N     -111.676    -129.525     132.201
  N     -112.949    -128.663     130.489
  C     -114.224    -128.507     130.034
  C     -115.391    -128.964     130.597
  C     -115.294    -129.732     131.827
  O     -116.237    -130.219     132.446
  N     -116.491    -128.578     129.856
  C     -115.961    -127.951     128.820
  N     -114.607    -127.827     128.913
  O     -115.534    -124.999     122.752
  O     -113.572    -125.183     121.110
  H     -111.967    -129.173     128.608
  H     -115.753    -124.274     122.131
  H     -113.867    -130.372     133.119
  H     -116.522    -127.533     127.996
  H     -113.191    -126.357     128.690
  H     -113.248    -128.814     126.813
  H     -111.555    -129.983     133.094
  H     -111.812    -127.478     125.342
  H     -110.862    -129.117     131.767
  H     -113.357    -125.156     125.748
  H     -114.403    -127.810     124.679
  H     -115.292    -126.308     124.520
  P     -110.168    -125.499     125.885
  C     -108.345    -126.532     127.422
  O     -108.924    -126.478     126.130
  O     -109.721    -124.146     126.639
  O     -110.518    -125.227     124.462
  H     -109.493    -123.467     125.973
  H     -107.878    -127.510     127.565
  H     -109.100    -126.384     128.208
  H     -107.582    -125.749     127.513
  H     -115.011    -128.918     120.474
  H     -113.597    -128.505     121.414
  H     -113.968    -127.616     119.956

 3  4  5  6  7  8  9  10  11  12  23  26  30  31 0
 6-311+G(2d,p)
 ****
 33  35  36  37  38 0
 6-311+G(2d,p)
 ****
 1  2  13  14  15  16  17  18  19  20  21  22  24  25 0
 3-21G
 ****
 27  28  29  32  34  39  40  41  42  43  44  45  46  47  48  49 0
 3-21G
 ****


