%nproc=1
%NoSave
%Mem=1900MB
#P OB98/GEN NMR

erre ene a

0 1
  C      269.828       1.112    -176.662
  O      268.693       0.715    -175.911
  P      267.327       1.528    -176.144
  C      265.533       1.509    -178.022
  O      266.881       1.239    -177.659
  C      265.410       1.826    -179.514
  O      266.006       3.121    -179.769
  C      266.088       0.803    -180.428
  O      265.281       0.659    -181.596
  C      267.392       1.479    -180.808
  O      267.904       0.980    -182.042
  C      266.966       2.956    -180.831
  N      268.100       3.861    -180.671
  C      268.750       4.271    -181.839
  O      268.408       3.812    -182.928
  N      269.799       5.150    -181.736
  C      270.232       5.501    -180.567
  N      271.271       6.376    -180.519
  C      269.653       4.991    -179.307
  C      268.589       4.200    -179.432
  O      267.822       3.049    -176.189
  O      266.283       1.302    -175.103
  H      268.315       0.105    -181.870
  H      267.138       3.647    -175.832
  H      270.076       5.286    -178.357
  H      268.086       3.798    -178.564
  H      266.461       3.198    -181.777
  H      268.143       1.309    -180.027
  H      266.224      -0.171    -179.949
  H      264.344       1.905    -179.759
  H      271.661       6.700    -181.394
  H      265.179       2.376    -177.458
  H      271.675       6.704    -179.650
  H      264.906       0.652    -177.756
  P      265.138      -0.811    -182.224
  C      264.261      -3.046    -181.316
  O      264.716      -1.747    -180.992
  O      266.675      -1.224    -182.427
  O      264.366      -0.967    -183.491
  H      266.728      -2.089    -182.868
  H      264.141      -3.615    -180.391
  H      264.988      -3.559    -181.953
  H      263.292      -2.988    -181.820
  H      270.660       0.489    -176.407
  H      270.064       2.131    -176.439
  H      269.616       1.015    -177.706

 3  4  5  6  7  8  9  10  11  12  13  21  23  27  28  29  30  32 0
 6-311+G(2d,p)
 ****
 34  35 0
 6-311+G(2d,p)
 ****
 1  2  14  15  16  17  18  19  20  22  24  25  26 0
 3-21G
 ****
 31  33  36  37  38  39  40  41  42  43  44  45  46 0
 3-21G
 ****


