%nproc=1
%NoSave
%Mem=1900MB
#P OB98/GEN NMR

erre ene a

0 1
  C        7.824     146.180     381.893
  O        8.494     146.495     380.690
  H        7.394     145.179     381.805
  H        7.013     146.895     382.054
  H        8.512     146.197     382.742
  P        9.522     147.725     380.723
  C        8.067     149.533     379.562
  O        8.636     149.064     380.775
  C        7.452     150.918     379.763
  O        6.220     150.772     380.533
  C        8.359     151.906     380.515
  O        8.172     153.216     379.965
  C        7.777     151.894     381.917
  O        8.088     153.078     382.643
  C        6.294     151.727     381.607
  N        3.960     153.410     385.718
  C        4.446     154.091     384.620
  N        4.353     155.438     384.641
  N        4.984     153.500     383.586
  C        4.998     152.150     383.685
  C        4.556     151.359     384.717
  C        3.976     152.025     385.865
  O        3.550     151.479     386.877
  N        4.805     150.033     384.461
  C        5.416     150.028     383.289
  N        5.557     151.289     382.779
  O       10.116     147.724     379.236
  O       10.598     147.631     381.752
  H        8.021     152.878     383.599
  H       10.952     147.221     379.214
  H        3.570     153.914     386.496
  H        5.789     149.151     382.782
  H        5.828     152.662     381.269
  H        8.163     151.033     382.476
  H        3.923     155.962     385.387
  H        9.421     151.643     380.490
  H        4.668     155.947     383.824
  H        7.170     151.323     378.783
  H        7.285     148.840     379.239
  H        8.844     149.570     378.791
  P        9.268     153.762     378.930
  C       10.752     154.515     380.931
  O       10.684     153.847     379.680
  O        8.858     155.299     378.747
  O        9.279     153.040     377.624
  H        9.044     155.584     377.834
  H       11.757     154.485     381.297
  H       10.103     154.030     381.630
  H       10.448     155.533     380.809

 6  7  8  9  10  11  12  13  14  15  26  29  33  34 0
 6-311+G(2d,p)
 ****
 36  38  39  40  41 0
 6-311+G(2d,p)
 ****
 1  2  3  4  5  16  17  18  19  20  21  22  23  24  25 0
 3-21G
 ****
 27  28  30  31  32  35  37  42  43  44  45  46  47 0
 3-21G
 ****
 48  49 0
 3-21G
 ****


