%nproc=1
%NoSave
%Mem=1900MB
#P OB98/GEN NMR

erre ene a

0 1
  C      504.572     271.897      37.958
  O      504.395     271.518      36.605
  H      503.636     272.285      38.367
  H      504.871     271.016      38.538
  H      505.356     272.657      38.037
  P      503.917     272.662      35.591
  C      505.502     271.814      33.704
  O      504.165     272.054      34.123
  C      505.494     270.851      32.520
  O      505.038     269.546      32.933
  C      504.561     271.285      31.381
  O      505.142     272.254      30.527
  C      504.363     269.958      30.664
  O      505.521     269.656      29.867
  C      504.251     268.976      31.849
  N      499.639     267.116      30.606
  C      500.826     267.119      29.944
  N      502.011     267.617      30.352
  C      501.901     268.140      31.587
  C      500.769     268.210      32.373
  C      499.593     267.668      31.840
  N      498.373     267.697      32.499
  N      501.046     268.845      33.573
  C      502.333     269.144      33.511
  N      502.888     268.770      32.308
  O      505.065     273.784      35.706
  O      502.545     273.205      35.811
  H      506.278     269.603      30.474
  H      504.764     274.629      35.305
  H      500.816     266.661      28.950
  H      502.905     269.645      34.288
  H      504.673     267.991      31.617
  H      503.495     269.970      29.991
  H      503.593     271.625      31.775
  H      506.526     270.746      32.147
  H      506.066     271.368      34.536
  H      497.559     267.414      31.967
  H      498.299     268.229      33.350
  H      505.970     272.764      33.419
  P      504.419     273.680      30.415
  C      506.392     275.214      29.700
  O      505.212     274.519      29.306
  O      504.834     274.405      31.794
  O      502.930     273.617      30.251
  H      504.127     275.003      32.105
  H      506.805     275.723      28.855
  H      507.108     274.515      30.080
  H      506.149     275.925      30.462

 6  7  8  9  10  11  12  13  14  15  25  28  32  33  34  35 0
 6-311+G(2d,p)
 ****
 36  39  40 0
 6-311+G(2d,p)
 ****
 1  2  3  4  5  16  17  18  19  20  21  22  23  24 0
 3-21G
 ****
 26  27  29  30  31  37  38  41  42  43  44  45  46  47 0
 3-21G
 ****
 48 0
 3-21G
 ****


