%nproc=1
%NoSave
%Mem=1900MB
#P OB98/GEN NMR

erre ene a

0 1
  C       79.353     319.582    -175.303
  O       80.739     319.833    -175.549
  P       81.838     319.199    -174.573
  C       82.174     318.888    -172.027
  O       81.501     319.600    -173.059
  C       82.809     319.872    -171.038
  O       83.842     320.668    -171.670
  C       81.815     320.887    -170.493
  O       80.821     320.401    -169.617
  C       82.728     321.984    -169.971
  O       83.217     321.686    -168.665
  C       83.880     321.947    -171.003
  N       83.814     323.049    -171.964
  C       84.312     324.273    -171.526
  O       84.743     324.457    -170.391
  N       84.261     325.296    -172.433
  C       83.743     325.226    -173.694
  O       83.702     326.182    -174.459
  C       83.209     323.913    -174.093
  C       83.270     322.901    -173.223
  O       83.260     319.402    -174.981
  O       81.473     317.634    -174.601
  H       83.884     322.362    -168.443
  H       82.311     317.133    -174.633
  H       84.625     326.188    -172.136
  H       82.785     323.820    -175.082
  H       82.884     321.924    -173.497
  H       84.851     322.005    -170.494
  H       82.209     322.945    -169.908
  H       81.267     321.315    -171.348
  H       83.278     319.303    -170.234
  H       82.940     318.242    -172.463
  H       81.459     318.226    -171.527
  P       79.252     320.479    -169.936
  C       77.415     322.273    -169.580
  O       78.782     322.006    -169.797
  O       78.376     319.436    -169.326
  O       79.243     320.279    -171.532
  H       78.430     319.806    -171.778
  H       77.274     323.356    -169.527
  H       77.085     321.832    -168.634
  H       76.811     321.884    -170.405
  H       78.763     320.078    -176.046
  H       79.090     319.951    -174.334
  H       79.168     318.529    -175.346

 3  4  5  6  7  8  9  10  11  12  13  23  28  29  30  31  32 0
 6-311+G(2d,p)
 ****
 33  34 0
 6-311+G(2d,p)
 ****
 1  2  14  15  16  17  18  19  20  21  22  24  25  26  27 0
 3-21G
 ****
 35  36  37  38  39  40  41  42  43  44  45 0
 3-21G
 ****


