%nproc=1
%NoSave
%Mem=1900MB
#P OB98/GEN NMR

erre ene a

0 1
  C      -46.473     284.372    -330.168
  O      -46.216     283.237    -330.973
  H      -45.550     284.950    -330.074
  H      -46.794     284.056    -329.172
  H      -47.240     284.999    -330.627
  P      -47.484     282.342    -331.386
  C      -46.703     279.847    -331.140
  O      -46.877     280.979    -331.972
  C      -45.522     279.001    -331.618
  O      -45.787     278.554    -332.973
  C      -44.189     279.754    -331.626
  O      -43.152     278.839    -331.270
  C      -44.029     280.160    -333.082
  O      -42.664     280.401    -333.422
  C      -44.680     278.968    -333.800
  N      -45.116     279.304    -335.151
  C      -44.126     279.743    -336.042
  O      -42.956     279.837    -335.667
  N      -44.488     280.094    -337.315
  C      -45.737     280.080    -337.658
  N      -46.034     280.470    -338.928
  C      -46.821     279.675    -336.738
  C      -46.439     279.294    -335.520
  O      -48.016     283.111    -332.684
  O      -48.498     282.177    -330.306
  H      -42.609     280.583    -334.385
  H      -47.308     283.370    -333.298
  H      -47.850     279.689    -337.067
  H      -47.168     278.970    -334.785
  H      -43.977     278.126    -333.863
  H      -44.591     281.080    -333.283
  H      -44.182     280.605    -330.942
  H      -45.462     278.102    -330.993
  H      -45.265     280.762    -339.514
  H      -47.611     279.233    -331.135
  H      -46.975     280.552    -339.282
  H      -46.530     280.202    -330.118
  P      -42.463     278.949    -329.830
  C      -40.272     277.840    -330.653
  O      -41.329     277.819    -329.696
  O      -43.395     279.050    -328.673
  O      -41.591     280.296    -329.958
  H      -41.672     280.781    -329.115
  H      -39.591     277.040    -330.450
  H      -39.753     278.774    -330.591
  H      -40.678     277.722    -331.636

 6  7  8  9  10  11  12  13  14  15  16  26  30  31  32  33  35 0
 6-311+G(2d,p)
 ****
 37  38 0
 6-311+G(2d,p)
 ****
 1  2  3  4  5  17  18  19  20  21  22  23  24  25 0
 3-21G
 ****
 27  28  29  34  36  39  40  41  42  43  44  45  46 0
 3-21G
 ****


