%nproc=1
%NoSave
%Mem=1900MB
#P OB98/GEN NMR

erre ene a

0 1
  C      241.519     -83.454    -105.144
  O      240.564     -84.322    -104.563
  H      241.313     -83.371    -106.214
  H      242.527     -83.859    -105.009
  H      241.451     -82.461    -104.692
  P      240.738     -84.622    -102.995
  C      241.786     -86.968    -103.354
  O      241.969     -85.646    -102.867
  C      242.289     -87.988    -102.338
  O      243.731     -87.978    -102.272
  C      241.783     -87.762    -100.916
  O      240.494     -88.324    -100.739
  C      242.854     -88.475    -100.103
  O      242.628     -89.904    -100.094
  C      244.133     -88.134    -100.883
  N      246.363     -85.917     -96.934
  C      245.694     -87.119     -97.017
  N      245.575     -87.831     -95.872
  N      245.174     -87.587     -98.123
  C      245.318     -86.746     -99.174
  C      245.958     -85.526     -99.217
  C      246.575     -85.050     -97.999
  O      247.255     -84.032     -97.880
  N      245.908     -84.985    -100.478
  C      245.211     -85.854    -101.182
  N      244.826     -86.939    -100.434
  O      239.465     -85.532    -102.646
  O      240.798     -83.419    -102.115
  H      243.429     -90.348     -99.764
  H      239.140     -85.290    -101.758
  H      246.770     -85.623     -96.064
  H      244.967     -85.754    -102.235
  H      244.862     -88.950    -100.849
  H      242.849     -88.156     -99.059
  H      245.685     -87.403     -94.966
  H      241.789     -86.692    -100.661
  H      245.019     -88.676     -95.922
  H      241.992     -88.982    -102.694
  H      242.346     -87.081    -104.290
  H      240.722     -87.133    -103.550
  P      239.401     -87.476     -99.927
  C      239.842     -88.312     -97.507
  O      239.961     -87.245     -98.440
  O      238.213     -88.529     -99.723
  O      238.916     -86.249    -100.627
  H      237.475     -88.316    -100.322
  H      240.256     -88.012     -96.567
  H      240.372     -89.167     -97.873
  H      238.809     -88.560     -97.379

 6  7  8  9  10  11  12  13  14  15  26  29  33  34 0
 6-311+G(2d,p)
 ****
 36  38  39  40  41 0
 6-311+G(2d,p)
 ****
 1  2  3  4  5  16  17  18  19  20  21  22  23  24  25 0
 3-21G
 ****
 27  28  30  31  32  35  37  42  43  44  45  46  47 0
 3-21G
 ****
 48  49 0
 3-21G
 ****


