%nproc=1
%NoSave
%Mem=1900MB
#P OB98/GEN NMR

erre ene a

0 1
  C     -155.376     595.253     148.096
  O     -154.112     595.053     148.692
  H     -155.425     594.681     147.170
  H     -155.520     596.313     147.863
  H     -156.178     594.911     148.762
  P     -153.823     595.680     150.140
  C     -153.288     598.015     151.093
  O     -153.584     597.251     149.925
  C     -153.107     599.487     150.717
  O     -151.882     599.666     149.970
  C     -154.222     600.045     149.827
  O     -155.390     600.289     150.587
  C     -153.533     601.282     149.270
  O     -153.553     602.358     150.226
  C     -152.090     600.769     149.054
  N     -151.833     600.363     147.667
  C     -150.758     600.998     147.042
  O     -150.065     601.852     147.582
  N     -150.549     600.634     145.730
  C     -151.339     599.798     144.995
  O     -151.244     599.678     143.778
  C     -152.400     599.109     145.737
  C     -152.602     599.417     147.018
  O     -152.781     594.986     150.952
  O     -155.256     595.636     150.858
  H     -155.288     594.878     151.467
  H     -154.491     602.551     150.402
  H     -149.809     601.125     145.246
  H     -153.009     598.382     145.206
  H     -153.403     598.944     147.574
  H     -151.364     601.546     149.328
  H     -154.016     601.652     148.363
  H     -154.425     599.349     149.003
  H     -153.023     600.071     151.643
  H     -152.368     597.640     151.535
  H     -154.111     597.894     151.807
  P     -156.738     599.475     150.297
  C     -158.977     600.003     149.164
  O     -157.591     600.278     149.197
  O     -157.519     599.092     151.517
  O     -156.254     598.167     149.499
  H     -156.596     597.370     149.955
  H     -159.439     600.591     148.399
  H     -159.411     600.246     150.111
  H     -159.130     598.964     148.957

 6  7  8  9  10  11  12  13  14  15  16  27  31  32  33  34  35 0
 6-311+G(2d,p)
 ****
 36  37 0
 6-311+G(2d,p)
 ****
 1  2  3  4  5  17  18  19  20  21  22  23  24  25 0
 3-21G
 ****
 26  28  29  30  38  39  40  41  42  43  44  45 0
 3-21G
 ****


