%nproc=1
%NoSave
%Mem=1900MB
#P OB98/GEN NMR

erre ene a

0 1
  C     1833.741     233.307    1344.463
  O     1833.907     232.745    1345.762
  P     1833.511     233.642    1347.029
  C     1831.639     231.978    1347.875
  O     1831.980     233.261    1347.378
  C     1831.078     232.100    1349.290
  O     1830.111     233.160    1349.361
  C     1830.337     230.837    1349.799
  O     1831.241     229.815    1350.184
  C     1829.510     231.430    1350.916
  O     1830.308     231.581    1352.119
  C     1829.120     232.802    1350.363
  N     1827.773     232.878    1349.828
  C     1826.762     233.309    1350.693
  O     1827.022     233.639    1351.878
  N     1825.501     233.341    1350.195
  C     1825.115     232.900    1348.931
  O     1823.971     232.931    1348.557
  C     1826.204     232.432    1348.106
  C     1827.463     232.421    1348.527
  O     1833.407     235.092    1346.342
  O     1834.472     233.517    1348.161
  H     1833.195     235.053    1345.389
  H     1830.517     230.684    1352.456
  H     1824.781     233.667    1350.788
  H     1825.966     232.095    1347.064
  H     1828.260     232.067    1347.921
  H     1829.202     233.603    1351.145
  H     1828.639     230.806    1351.180
  H     1829.656     230.467    1349.001
  H     1831.905     232.344    1349.997
  H     1832.546     231.330    1347.917
  H     1830.893     231.523    1347.218
  P     1831.020     228.370    1349.484
  C     1832.910     229.079    1347.823
  O     1831.666     228.500    1347.980
  O     1829.433     228.362    1349.268
  O     1831.577     227.234    1350.330
  H     1829.094     229.212    1348.958
  H     1833.287     228.732    1346.832
  H     1833.611     228.771    1348.599
  H     1832.838     230.168    1347.795
  H     1834.045     232.595    1343.725
  H     1834.341     234.189    1344.376
  H     1832.712     233.560    1344.313

 3  4  5  6  7  8  9  10  11  12  13  24  28  29  30  31  32 0
 6-311+G(2d,p)
 ****
 33  34 0
 6-311+G(2d,p)
 ****
 1  2  14  15  16  17  18  19  20  21  22  23  25  26  27 0
 3-21G
 ****
 35  36  37  38  39  40  41  42  43  44  45 0
 3-21G
 ****


