%nproc=1
%NoSave
%Mem=1900MB
#P OB98/GEN NMR

erre ene a

0 1
  C      -10.257    -228.587     -16.036
  O      -11.408    -228.848     -16.821
  P      -11.282    -228.965     -18.413
  C      -12.001    -226.472     -18.639
  O      -11.072    -227.477     -18.978
  C      -12.661    -225.881     -19.893
  O      -11.645    -225.146     -20.624
  C      -13.215    -226.910     -20.872
  O      -14.139    -226.254     -21.745
  C      -11.975    -227.304     -21.648
  O      -12.288    -227.904     -22.901
  C      -11.192    -225.967     -21.728
  N       -9.737    -226.187     -21.643
  C       -9.033    -226.238     -22.844
  O       -9.559    -226.036     -23.935
  N       -7.720    -226.616     -22.752
  C       -7.082    -226.983     -21.603
  O       -6.024    -227.604     -21.577
  C       -7.799    -226.679     -20.356
  C       -9.084    -226.324     -20.427
  O      -12.778    -229.333     -18.860
  O      -10.294    -229.972     -18.895
  H      -12.841    -228.700     -22.707
  H      -12.863    -230.298     -18.977
  H       -7.252    -226.792     -23.635
  H       -7.272    -226.815     -19.415
  H       -9.657    -226.145     -19.519
  H      -11.399    -225.437     -22.667
  H      -11.405    -228.037     -21.064
  H      -13.691    -227.774     -20.398
  H      -13.441    -225.171     -19.595
  H      -11.497    -225.691     -18.062
  H      -12.783    -226.880     -17.985
  P      -15.463    -227.056     -22.177
  C      -14.499    -227.881     -24.411
  O      -14.978    -228.249     -23.133
  O      -16.587    -226.225     -22.703
  O      -15.874    -227.823     -20.828
  H      -16.808    -228.099     -20.877
  H      -13.759    -228.620     -24.737
  H      -14.031    -226.893     -24.394
  H      -15.333    -227.876     -25.121
  H      -10.532    -228.543     -15.003
  H       -9.829    -227.652     -16.331
  H       -9.541    -229.369     -16.182

 3  4  5  6  7  8  9  10  11  12  13  23  28  29  30  31  32 0
 6-311+G(2d,p)
 ****
 33  34 0
 6-311+G(2d,p)
 ****
 1  2  14  15  16  17  18  19  20  21  22  24  25  26  27 0
 3-21G
 ****
 35  36  37  38  39  40  41  42  43  44  45 0
 3-21G
 ****


