%nproc=1
%NoSave
%Mem=1900MB
#P OB98/GEN NMR

erre ene a

0 1
  C      177.281     -18.104     123.059
  O      176.682     -16.896     123.501
  H      177.311     -18.807     123.896
  H      178.306     -17.927     122.721
  H      176.694     -18.543     122.249
  P      176.664     -15.649     122.496
  C      179.167     -15.004     122.625
  O      178.128     -15.593     121.850
  C      180.198     -14.346     121.710
  O      180.711     -15.306     120.765
  C      179.621     -13.209     120.879
  O      179.444     -12.044     121.664
  C      180.657     -13.106     119.780
  O      181.813     -12.373     120.215
  C      181.006     -14.594     119.540
  N      180.281     -15.167     118.410
  C      181.047     -15.492     117.286
  O      182.263     -15.295     117.285
  N      180.409     -16.010     116.187
  C      179.126     -16.206     116.211
  N      178.559     -16.719     115.086
  C      178.283     -15.894     117.378
  C      178.918     -15.380     118.433
  O      176.185     -14.341     123.049
  O      175.750     -16.155     121.280
  H      182.414     -12.345     119.445
  H      174.813     -15.938     121.444
  H      177.220     -16.075     117.357
  H      178.372     -15.125     119.336
  H      182.080     -14.713     119.356
  H      180.262     -12.602     118.900
  H      178.673     -13.518     120.423
  H      181.037     -13.998     122.328
  H      179.173     -16.907     114.306
  H      179.634     -15.807     123.205
  H      177.589     -17.000     115.024
  H      178.756     -14.265     123.324
  P      178.176     -11.091     121.439
  C      179.584      -9.421     120.057
  O      178.467     -10.315     120.060
  O      177.814     -10.224     122.597
  O      177.016     -12.120     121.024
  H      176.694     -12.634     121.808
  H      179.675      -8.968     119.092
  H      180.477      -9.966     120.281
  H      179.435      -8.661     120.795

 6  7  8  9  10  11  12  13  14  15  16  26  30  31  32  33  35 0
 6-311+G(2d,p)
 ****
 37  38 0
 6-311+G(2d,p)
 ****
 1  2  3  4  5  17  18  19  20  21  22  23  24  25 0
 3-21G
 ****
 27  28  29  34  36  39  40  41  42  43  44  45  46 0
 3-21G
 ****


