%nproc=1
%NoSave
%Mem=1900MB
#P OB98/GEN NMR

erre ene a

0 1
  C     -319.020     226.145     345.787
  O     -318.168     225.069     346.131
  H     -319.292     226.687     346.697
  H     -319.930     225.770     345.315
  H     -318.508     226.836     345.105
  P     -317.503     224.253     344.914
  C     -315.081     224.174     345.922
  O     -316.258     223.475     345.549
  C     -314.062     223.221     346.551
  O     -314.638     222.661     347.761
  C     -313.658     222.060     345.637
  O     -312.269     221.786     345.844
  C     -314.499     220.900     346.144
  O     -313.914     219.640     345.819
  C     -314.596     221.217     347.642
  N     -315.763     220.601     348.272
  C     -315.524     219.472     349.070
  O     -314.379     219.040     349.204
  N     -316.589     218.848     349.662
  C     -317.801     219.264     349.424
  N     -318.814     218.586     350.026
  C     -318.100     220.411     348.543
  C     -317.045     221.033     348.022
  O     -316.827     225.436     344.067
  O     -318.462     223.412     344.141
  H     -313.043     219.576     346.271
  H     -316.390     226.109     344.617
  H     -319.128     220.707     348.365
  H     -317.177     221.892     347.372
  H     -313.691     220.871     348.167
  H     -315.497     220.938     345.686
  H     -313.841     222.259     344.579
  H     -313.185     223.803     346.863
  H     -318.564     217.794     350.605
  H     -315.325     224.971     346.633
  H     -319.793     218.784     349.877
  H     -314.664     224.640     345.021
  P     -311.347     221.428     344.586
  C     -309.599     223.257     345.089
  O     -309.833     221.869     344.895
  O     -311.865     221.863     343.251
  O     -311.254     219.820     344.652
  H     -311.281     219.480     343.738
  H     -308.560     223.419     345.286
  H     -310.178     223.604     345.920
  H     -309.883     223.793     344.208

 6  7  8  9  10  11  12  13  14  15  16  26  30  31  32  33  35 0
 6-311+G(2d,p)
 ****
 37  38 0
 6-311+G(2d,p)
 ****
 1  2  3  4  5  17  18  19  20  21  22  23  24  25 0
 3-21G
 ****
 27  28  29  34  36  39  40  41  42  43  44  45  46 0
 3-21G
 ****


