%nproc=1
%NoSave
%Mem=1900MB
#P OB98/GEN NMR

erre ene a

0 1
  C     -107.001      61.004     121.309
  O     -107.999      60.847     122.297
  H     -107.468      60.943     120.323
  H     -106.257      60.206     121.395
  H     -106.515      61.978     121.411
  P     -107.523      60.947     123.826
  C     -106.582      59.259     125.566
  O     -106.943      59.501     124.211
  C     -105.402      58.294     125.621
  O     -104.221      58.948     125.105
  C     -105.035      57.834     127.027
  O     -105.895      56.808     127.492
  C     -103.598      57.373     126.823
  O     -103.540      56.036     126.309
  C     -103.079      58.361     125.768
  N      -98.296      60.053     126.262
  C      -98.823      59.024     125.562
  N     -100.117      58.650     125.468
  C     -100.899      59.472     126.189
  C     -100.504      60.554     126.957
  C      -99.130      60.843     126.978
  N      -98.589      61.867     127.718
  N     -101.594      61.121     127.588
  C     -102.627      60.402     127.200
  N     -102.255      59.399     126.351
  O     -108.909      61.026     124.626
  O     -106.628      62.098     124.140
  H     -102.605      55.861     126.089
  H     -109.136      61.959     124.794
  H      -98.111      58.418     125.008
  H     -103.652      60.561     127.512
  H     -102.478      57.864     124.996
  H     -103.038      57.385     127.758
  H     -105.038      58.686     127.718
  H     -105.625      57.434     124.976
  H     -107.434      58.817     126.093
  H     -106.324      60.212     126.039
  H      -97.592      62.001     127.704
  H      -99.190      62.394     128.338
  P     -105.504      56.034     128.837
  C     -103.498      54.583     129.633
  O     -104.180      55.178     128.540
  O     -106.651      54.926     128.970
  O     -105.420      56.898     130.052
  H     -107.327      55.211     129.613
  H     -102.643      54.051     129.273
  H     -104.154      53.904     130.136
  H     -103.183      55.345     130.314

 6  7  8  9  10  11  12  13  14  15  25  28  32  33  34  35 0
 6-311+G(2d,p)
 ****
 36  37  40 0
 6-311+G(2d,p)
 ****
 1  2  3  4  5  16  17  18  19  20  21  22  23  24 0
 3-21G
 ****
 26  27  29  30  31  38  39 41  42  43  44  45  46  47  48 0
 3-21G
 ****


