%nproc=1
%NoSave
%Mem=1900MB
#P OB98/GEN NMR

erre ene a

0 1
  C       44.978    -229.949    -138.452
  O       44.987    -229.226    -139.666
  H       44.655    -229.303    -137.632
  H       44.274    -230.783    -138.543
  H       45.973    -230.350    -138.242
  P       45.954    -227.945    -139.723
  C       44.376    -226.046    -138.948
  O       45.434    -226.925    -138.593
  C       44.434    -224.786    -138.086
  O       43.821    -225.087    -136.803
  C       45.857    -224.268    -137.825
  O       45.945    -222.868    -138.117
  C       46.059    -224.465    -136.335
  O       46.860    -223.449    -135.742
  C       44.630    -224.458    -135.801
  N       42.162    -224.584    -131.340
  C       41.827    -224.040    -132.533
  N       42.484    -224.125    -133.706
  C       43.581    -224.892    -133.584
  C       44.037    -225.531    -132.442
  C       43.286    -225.337    -131.272
  N       43.657    -225.844    -130.047
  N       45.206    -226.223    -132.702
  C       45.473    -225.969    -133.967
  N       44.527    -225.156    -134.537
  O       45.537    -227.233    -141.097
  O       47.409    -228.265    -139.689
  H       46.350    -222.620    -135.781
  H       46.315    -227.211    -141.687
  H       40.914    -223.453    -132.539
  H       46.353    -226.304    -134.504
  H       44.255    -223.436    -135.660
  H       46.543    -225.434    -136.164
  H       46.614    -224.806    -138.404
  H       43.823    -224.008    -138.560
  H       43.414    -226.545    -138.785
  H       43.125    -225.562    -129.239
  H       44.551    -226.312    -129.970
  H       44.465    -225.789    -140.008
  P       46.474    -222.480    -139.585
  C       48.784    -221.482    -138.940
  O       48.080    -222.547    -139.569
  O       46.150    -220.916    -139.689
  O       45.816    -223.247    -140.684
  H       45.592    -220.743    -140.470
  H       49.837    -221.662    -139.007
  H       48.497    -221.423    -137.911
  H       48.548    -220.560    -139.429

 6  7  8  9  10  11  12  13  14  15  25  28  32  33  34  35 0
 6-311+G(2d,p)
 ****
 36  39  40 0
 6-311+G(2d,p)
 ****
 1  2  3  4  5  16  17  18  19  20  21  22  23  24 0
 3-21G
 ****
 26  27  29  30  31  37  38  41  42  43  44  45  46  47  48 0
 3-21G
 ****


