%nproc=1
%NoSave
%Mem=1900MB
#P OB98/GEN NMR

erre ene a

0 1
  C      931.588    -894.230    -528.054
  O      930.280    -894.550    -528.491
  P      929.379    -893.360    -529.096
  C      927.038    -893.770    -527.959
  O      927.874    -893.900    -529.106
  C      925.576    -893.740    -528.379
  O      925.348    -892.680    -529.372
  C      925.079    -895.010    -529.064
  O      924.833    -896.060    -528.118
  C      923.833    -894.500    -529.794
  O      922.713    -894.420    -528.883
  C      924.267    -893.110    -530.241
  N      924.685    -893.050    -531.637
  C      923.806    -893.610    -532.573
  O      922.733    -894.140    -532.237
  N      924.230    -893.580    -533.876
  C      925.419    -893.110    -534.325
  O      925.750    -893.150    -535.515
  C      926.324    -892.570    -533.290
  C      925.940    -892.550    -532.021
  O      929.833    -893.380    -530.619
  O      929.587    -892.050    -528.372
  H      930.144    -894.260    -530.905
  H      922.446    -895.360    -528.656
  H      923.593    -893.960    -534.552
  H      927.287    -892.190    -533.631
  H      926.575    -892.150    -531.251
  H      923.461    -892.390    -530.077
  H      923.521    -895.180    -530.611
  H      925.813    -895.360    -529.804
  H      924.952    -893.520    -527.506
  H      927.274    -892.840    -527.455
  H      927.214    -894.610    -527.270
  P      925.457    -897.500    -528.441
  C      923.937    -899.180    -527.155
  O      925.123    -898.430    -527.185
  O      927.020    -897.200    -528.311
  O      925.034    -898.050    -529.788
  H      927.231    -896.640    -527.559
  H      924.056    -900.000    -526.414
  H      923.715    -899.630    -528.110
  H      923.095    -898.550    -526.835
  H      932.065    -895.112    -527.680
  H      931.535    -893.496    -527.277
  H      932.153    -893.840    -528.875

 3  4  5  6  7  8  9  10  11  12  13  24  28  29  30  31  32 0
 6-311+G(2d,p)
 ****
 33  34 0
 6-311+G(2d,p)
 ****
 1  2  14  15  16  17  18  19  20  21  22  23  25  26  27 0
 3-21G
 ****
 35  36  37  38  39  40  41  42  43  44  45 0
 3-21G
 ****


