%nproc=1
%NoSave
%Mem=1900MB
#P OB98/GEN NMR

erre ene a

0 1
  C     -359.329    -348.138     -16.476
  O     -360.374    -348.687     -17.280
  P     -361.537    -347.843     -17.974
  C     -363.515    -346.353     -17.081
  O     -362.598    -347.419     -16.855
  C     -363.717    -345.520     -15.804
  O     -364.214    -346.402     -14.747
  C     -362.411    -344.894     -15.296
  O     -362.566    -343.549     -14.846
  C     -361.922    -345.916     -14.279
  O     -360.978    -345.384     -13.358
  C     -363.232    -346.429     -13.684
  N     -361.800    -349.307      -9.712
  C     -361.602    -347.955      -9.938
  N     -360.908    -347.285      -8.989
  N     -362.015    -347.330     -11.006
  C     -362.617    -348.133     -11.907
  C     -362.866    -349.486     -11.805
  C     -362.444    -350.162     -10.598
  O     -362.619    -351.350     -10.342
  N     -363.514    -349.962     -12.923
  C     -363.637    -348.904     -13.705
  N     -363.114    -347.762     -13.126
  O     -362.087    -348.414     -19.241
  O     -360.821    -346.443     -18.343
  H     -361.414    -344.648     -12.878
  H     -361.257    -346.121     -19.158
  H     -361.478    -349.735      -8.861
  H     -364.109    -348.897     -14.676
  H     -363.588    -345.794     -12.871
  H     -361.410    -346.715     -14.836
  H     -360.453    -347.731      -8.204
  H     -361.677    -344.812     -16.108
  H     -360.572    -346.356      -9.258
  H     -364.483    -344.762     -16.001
  H     -364.460    -346.825     -17.373
  H     -363.184    -345.732     -17.911
  P     -361.718    -342.256     -15.260
  C     -359.516    -341.127     -14.607
  O     -360.453    -342.136     -14.291
  O     -362.629    -341.014     -14.817
  O     -361.397    -342.169     -16.726
  H     -362.871    -340.481     -15.607
  H     -358.586    -341.315     -14.048
  H     -359.911    -340.153     -14.306
  H     -359.290    -341.118     -15.676
  H     -358.688    -348.925     -16.138
  H     -359.754    -347.637     -15.632
  H     -358.762    -347.440     -17.056

 3  4  5  6  7  8  9  10  11  12  23  26  30  31 0
 6-311+G(2d,p)
 ****
 33  35  36  37  38 0
 6-311+G(2d,p)
 ****
 1  2  13  14  15  16  17  18  19  20  21  22  24  25 0
 3-21G
 ****
 27  28  29  32  34  39  40  41  42  43  44  45  46  47  48  49 0
 3-21G
 ****


