%nproc=1
%NoSave
%Mem=1900MB
#P OB98/GEN NMR

erre ene a

0 1
  C      141.991    -916.049    1005.403
  O      142.083    -916.985    1006.439
  P      142.453    -918.526    1006.104
  C      140.960    -919.323    1008.054
  O      141.265    -919.449    1006.655
  C      139.636    -920.014    1008.384
  O      138.516    -919.253    1007.822
  C      139.510    -921.410    1007.785
  O      140.303    -922.342    1008.485
  C      137.994    -921.629    1007.928
  O      137.633    -922.028    1009.258
  C      137.443    -920.222    1007.623
  N      136.895    -920.102    1006.276
  C      135.571    -920.494    1006.123
  O      134.945    -920.988    1007.075
  N      134.962    -920.346    1004.897
  C      135.675    -919.924    1003.876
  N      135.031    -919.721    1002.685
  C      137.134    -919.674    1003.966
  C      137.676    -919.741    1005.184
  O      143.827    -918.974    1006.501
  O      142.258    -918.628    1004.503
  H      143.055    -919.055    1004.125
  H      136.647    -922.072    1009.284
  H      137.686    -919.414    1003.070
  H      138.705    -919.564    1005.356
  H      136.648    -919.951    1008.352
  H      137.629    -922.401    1007.241
  H      139.772    -921.396    1006.730
  H      139.525    -920.040    1009.481
  H      134.034    -919.925    1002.663
  H      140.897    -918.264    1008.300
  H      135.405    -919.123    1001.958
  H      141.774    -919.753    1008.654
  P      141.108    -923.404    1007.578
  C      141.436    -924.862    1009.688
  O      141.051    -924.814    1008.325
  O      142.637    -922.945    1007.744
  O      140.700    -923.428    1006.128
  H      143.121    -923.040    1006.907
  H      141.008    -925.784    1010.131
  H      141.010    -924.007    1010.232
  H      142.508    -924.880    1009.793
  H      141.740    -915.091    1005.809
  H      141.232    -916.354    1004.713
  H      142.931    -915.986    1004.895

 3  4  5  6  7  8  9  10  11  12  13  24  27  28  29  30  32 0
 6-311+G(2d,p)
 ****
 34  35 0
 6-311+G(2d,p)
 ****
 1  2  14  15  16  17  18  19  20  21  22  23  25  26 0
 3-21G
 ****
 31  33  36  37  38  39  40  41  42  43  44  45  46 0
 3-21G
 ****


