%nproc=1
%NoSave
%Mem=1900MB
#P OB98/GEN NMR

erre ene a

0 1
  C     -159.537    -109.641     -67.809
  O     -159.623    -111.064     -67.857
  P     -159.121    -111.831     -69.175
  C     -157.419    -113.364     -68.005
  O     -158.620    -113.302     -68.758
  C     -156.909    -114.802     -67.836
  O     -157.719    -115.529     -66.874
  C     -156.896    -115.626     -69.135
  O     -155.751    -116.483     -69.078
  C     -158.174    -116.432     -69.022
  O     -158.186    -117.561     -69.880
  C     -158.175    -116.738     -67.519
  N     -159.482    -117.149     -67.034
  C     -159.706    -118.520     -66.883
  O     -158.856    -119.327     -67.252
  N     -160.905    -118.933     -66.343
  C     -161.843    -118.064     -66.124
  N     -163.004    -118.508     -65.573
  C     -161.701    -116.628     -66.444
  C     -160.501    -116.242     -66.866
  O     -158.172    -111.066     -70.037
  O     -160.491    -112.134     -69.956
  H     -157.526    -118.213     -69.561
  H     -160.323    -112.080     -70.916
  H     -162.539    -115.956     -66.323
  H     -160.296    -115.212     -67.121
  H     -157.452    -117.530     -67.282
  H     -159.032    -115.799     -69.282
  H     -156.834    -115.011     -70.039
  H     -155.886    -114.751     -67.429
  H     -163.094    -119.500     -65.381
  H     -157.589    -112.924     -67.019
  H     -163.761    -117.885     -65.325
  H     -156.660    -112.730     -68.486
  P     -154.547    -116.250     -70.117
  C     -152.711    -116.518     -68.300
  O     -153.238    -116.960     -69.530
  O     -154.208    -114.692     -69.881
  O     -154.868    -116.490     -71.559
  H     -153.802    -114.334     -70.688
  H     -152.016    -117.274     -67.920
  H     -153.498    -116.375     -67.554
  H     -152.161    -115.579     -68.444
  H     -159.910    -109.293     -66.869
  H     -160.121    -109.221     -68.602
  H     -158.516    -109.341     -67.921

 3  4  5  6  7  8  9  10  11  12  13  23  27  28  29  30  32 0
 6-311+G(2d,p)
 ****
 34  35 0
 6-311+G(2d,p)
 ****
 1  2  14  15  16  17  18  19  20  21  22  24  25  26 0
 3-21G
 ****
 31  33  36  37  38  39  40  41  42  43  44  45  46 0
 3-21G
 ****


