%nproc=1
%NoSave
%Mem=1900MB
#P OB98/GEN NMR

erre ene a

0 1
  C      -21.570    -168.591     155.596
  O      -22.224    -169.520     156.434
  H      -20.567    -168.408     155.991
  H      -22.114    -167.643     155.570
  H      -21.476    -168.993     154.583
  P      -23.759    -169.871     156.133
  C      -23.989    -170.579     158.608
  O      -24.218    -170.923     157.252
  C      -23.949    -171.834     159.491
  O      -25.102    -172.665     159.177
  C      -22.695    -172.699     159.285
  O      -22.417    -173.353     160.529
  C      -23.185    -173.695     158.253
  O      -22.316    -174.794     158.140
  C      -24.602    -173.957     158.772
  N      -25.454    -174.588     157.778
  C      -25.124    -175.899     157.423
  O      -24.151    -176.455     157.932
  N      -25.886    -176.537     156.477
  C      -26.848    -175.901     155.889
  N      -27.555    -176.585     154.948
  C      -27.193    -174.494     156.193
  C      -26.466    -173.908     157.142
  O      -24.070    -170.274     154.729
  O      -24.546    -168.538     156.545
  H      -22.306    -175.320     158.973
  H      -24.821    -168.057     155.742
  H      -27.994    -174.002     155.660
  H      -26.643    -172.877     157.433
  H      -24.577    -174.595     159.666
  H      -23.230    -173.231     157.262
  H      -21.826    -172.121     158.959
  H      -24.052    -171.528     160.539
  H      -27.279    -177.542     154.765
  H      -24.808    -169.924     158.924
  H      -28.311    -176.185     154.412
  H      -23.044    -170.032     158.705
  P      -21.346    -172.801     161.585
  C      -20.064    -174.860     162.468
  O      -21.095    -173.909     162.717
  O      -21.669    -171.443     162.125
  O      -19.956    -172.766     160.787
  H      -19.406    -172.039     161.137
  H      -19.998    -175.539     163.293
  H      -19.130    -174.351     162.349
  H      -20.289    -175.405     161.575

 6  7  8  9  10  11  12  13  14  15  16  26  30  31  32  33  35 0
 6-311+G(2d,p)
 ****
 37  38 0
 6-311+G(2d,p)
 ****
 1  2  3  4  5  17  18  19  20  21  22  23  24  25 0
 3-21G
 ****
 27  28  29  34  36  39  40  41  42  43  44  45  46 0
 3-21G
 ****


