%nproc=1
%NoSave
%Mem=1900MB
#P OB98/GEN NMR

erre ene a

0 1
  C      610.904    -992.630     893.941
  O      609.981    -991.618     893.506
  P      608.437    -991.873     893.901
  C      607.423    -989.657     894.806
  O      608.065    -990.900     895.104
  C      608.079    -988.520     895.639
  O      609.431    -988.262     895.277
  C      607.322    -987.173     895.475
  O      606.164    -987.169     896.278
  C      608.430    -986.215     895.953
  O      608.415    -986.088     897.380
  C      609.695    -986.861     895.485
  N      613.030    -983.548     893.561
  C      612.637    -983.738     894.875
  N      613.238    -982.947     895.786
  N      611.744    -984.618     895.228
  C      611.258    -985.326     894.202
  C      611.591    -985.244     892.854
  C      612.593    -984.265     892.480
  O      612.977    -984.069     891.338
  N      610.916    -986.197     892.117
  C      610.066    -986.745     892.965
  N      610.275    -986.316     894.261
  O      608.454    -993.339     894.550
  O      607.521    -991.792     892.715
  H      607.513    -986.007     897.700
  H      608.003    -993.965     893.936
  H      613.729    -982.838     893.337
  H      609.321    -987.454     892.697
  H      610.491    -986.789     896.240
  H      608.236    -985.205     895.552
  H      613.899    -982.261     895.614
  H      607.105    -986.995     894.414
  H      612.938    -983.082     896.791
  H      608.050    -988.834     896.679
  H      606.366    -989.705     895.025
  H      607.550    -989.457     893.726
  P      604.813    -987.736     895.645
  C      604.274    -989.717     897.230
  O      604.725    -989.314     895.979
  O      605.101    -987.663     894.068
  O      603.593    -986.941     895.986
  H      604.338    -987.281     893.613
  H      603.810    -990.679     897.136
  H      603.539    -989.009     897.653
  H      605.146    -989.800     897.901
  H      611.894    -992.367     893.631
  H      610.632    -993.570     893.508
  H      610.873    -992.706     895.008

 3  4  5  6  7  8  9  10  11  12  23  26  30  31 0
 6-311+G(2d,p)
 ****
 33  35  36  37  38 0
 6-311+G(2d,p)
 ****
 1  2  13  14  15  16  17  18  19  20  21  22  24  25 0
 3-21G
 ****
 27  28  29  32  34  39  40  41  42  43  44  45  46  47  48  49 0
 3-21G
 ****


