%nproc=1
%NoSave
%Mem=1900MB
#P OB98/GEN NMR

erre ene a

0 1
  C      527.188       8.964     126.005
  O      527.203       9.147     124.582
  P      527.224       7.843     123.653
  C      524.643       7.579     123.846
  O      525.773       7.681     122.993
  C      523.411       7.139     123.050
  O      522.308       6.798     123.917
  C      522.881       8.204     122.099
  O      523.598       8.222     120.874
  C      521.460       7.706     121.864
  O      521.475       6.646     120.884
  C      521.078       7.159     123.242
  N      517.511       7.708     126.789
  C      518.017       6.563     126.207
  N      517.502       5.388     126.640
  N      518.944       6.565     125.283
  C      519.374       7.808     124.967
  C      518.954       9.017     125.472
  C      517.915       8.999     126.479
  O      517.418       9.984     127.020
  N      519.623      10.063     124.893
  C      520.469       9.490     124.055
  N      520.345       8.122     124.048
  O      527.258       6.646     124.723
  O      528.380       7.774     122.714
  H      522.083       5.960     121.226
  H      527.698       5.868     124.332
  H      516.791       7.647     127.493
  H      521.181      10.019     123.436
  H      520.458       6.257     123.176
  H      520.807       8.490     121.476
  H      516.825       5.310     127.377
  H      522.860       9.191     122.584
  H      517.885       4.538     126.243
  H      523.684       6.245     122.467
  H      524.446       8.541     124.329
  H      524.871       6.879     124.655
  P      523.922       9.650     120.216
  C      526.316       9.869     121.199
  O      525.512       9.709     120.046
  O      523.617      10.669     121.415
  O      523.123       9.973     119.003
  H      523.300      11.519     121.058
  H      527.363       9.725     120.917
  H      526.050       9.132     121.961
  H      526.196      10.879     121.604
  H      527.175       9.919     126.487
  H      528.063       8.425     126.305
  H      526.315       8.411     126.284

 3  4  5  6  7  8  9  10  11  12  23  26  30  31 0
 6-311+G(2d,p)
 ****
 33  35  36  37  38 0
 6-311+G(2d,p)
 ****
 1  2  13  14  15  16  17  18  19  20  21  22  24  25 0
 3-21G
 ****
 27  28  29  32  34  39  40  41  42  43  44  45  46  47  48  49 0
 3-21G
 ****


