%nproc=1
%NoSave
%Mem=1900MB
#P OB98/GEN NMR

erre ene a

0 1
  C     -235.571     291.293      17.169
  O     -236.031     291.782      18.417
  P     -234.944     292.445      19.397
  C     -235.618     294.884      18.772
  O     -234.593     293.890      18.777
  C     -235.605     295.696      20.068
  O     -234.316     296.340      20.209
  C     -236.684     296.783      20.134
  O     -237.158     296.853      21.483
  C     -235.932     298.056      19.804
  O     -236.580     299.211      20.339
  C     -234.551     297.751      20.416
  N     -233.492     298.564      19.826
  C     -233.242     299.811      20.416
  O     -233.960     300.209      21.338
  N     -232.230     300.596      19.916
  C     -231.595     300.212      18.852
  N     -230.594     301.018      18.397
  C     -231.905     298.964      18.128
  C     -232.837     298.189      18.674
  O     -233.626     291.589      19.106
  O     -235.320     292.433      20.844
  H     -237.340     299.433      19.753
  H     -233.073     291.515      19.904
  H     -231.365     298.711      17.221
  H     -233.117     297.238      18.225
  H     -234.561     297.927      21.502
  H     -235.849     298.173      18.718
  H     -237.523     296.587      19.462
  H     -235.717     295.001      20.912
  H     -230.411     301.880      18.903
  H     -236.594     294.387      18.691
  H     -230.045     300.807      17.573
  H     -235.493     295.530      17.905
  P     -238.621     297.454      21.733
  C     -239.628     295.111      22.058
  O     -239.630     296.286      21.274
  O     -238.756     298.491      20.511
  O     -238.906     298.117      23.037
  H     -239.598     298.977      20.582
  H     -240.445     294.465      21.719
  H     -239.788     295.353      23.111
  H     -238.687     294.569      21.931
  H     -236.393     290.881      16.622
  H     -234.836     290.533      17.333
  H     -235.137     292.095      16.610

 3  4  5  6  7  8  9  10  11  12  13  21  23  27  28  29  30  32 0
 6-311+G(2d,p)
 ****
 34  35 0
 6-311+G(2d,p)
 ****
 1  2  14  15  16  17  18  19  20  22  24  25  26 0
 3-21G
 ****
 31  33  36  37  38  39  40  41  42  43  44  45  46 0
 3-21G
 ****


