%nproc=1
%NoSave
%Mem=1900MB
#P OB98/GEN NMR

erre ene a

0 1
  C      431.675     601.261     272.017
  O      430.798     601.994     272.848
  H      431.491     601.544     270.977
  H      431.498     600.183     272.122
  H      432.717     601.495     272.261
  P      430.794     601.674     274.422
  C      428.205     601.852     274.421
  O      429.434     602.341     274.954
  C      427.048     602.751     274.844
  O      426.828     602.667     276.274
  C      427.249     604.233     274.570
  O      427.118     604.575     273.200
  C      426.139     604.817     275.425
  O      424.876     604.627     274.762
  C      426.242     603.930     276.695
  N      427.040     604.541     277.750
  C      426.560     605.739     278.297
  O      425.510     606.233     277.885
  N      427.298     606.373     279.268
  C      428.423     605.862     279.653
  N      429.137     606.554     280.588
  C      428.962     604.599     279.122
  C      428.228     603.996     278.185
  O      432.032     602.051     275.178
  O      430.445     600.114     274.508
  H      424.817     603.681     274.541
  H      430.439     599.865     275.465
  H      429.914     604.216     279.470
  H      428.571     603.073     277.726
  H      425.241     603.704     277.089
  H      426.251     605.887     275.610
  H      428.217     604.572     274.962
  H      426.139     602.367     274.359
  H      428.761     607.437     280.899
  H      428.067     600.826     274.787
  H      430.135     606.371     280.736
  H      428.250     601.833     273.331
  P      428.363     605.298     272.479
  C      426.798     607.266     271.779
  O      427.744     606.287     271.379
  O      429.011     604.113     271.609
  O      429.361     605.937     273.399
  H      429.726     603.671     272.097
  H      426.491     607.835     270.926
  H      427.243     607.918     272.501
  H      425.946     606.783     272.211

 6  7  8  9  10  11  12  13  14  15  16  26  30  31  32  33  35 0
 6-311+G(2d,p)
 ****
 37  38 0
 6-311+G(2d,p)
 ****
 1  2  3  4  5  17  18  19  20  21  22  23  24  25 0
 3-21G
 ****
 27  28  29  34  36  39  40  41  42  43  44  45  46 0
 3-21G
 ****


