%nproc=1
%NoSave
%Mem=1900MB
#P OB98/GEN NMR

erre ene a

0 1
  C      234.810    -120.981     238.522
  O      235.397    -121.756     237.499
  H      235.079    -119.933     238.366
  H      235.192    -121.296     239.498
  H      233.720    -121.069     238.504
  P      235.012    -123.306     237.387
  C      237.435    -124.176     237.187
  O      236.180    -124.014     236.546
  C      238.502    -123.292     236.528
  O      238.407    -121.949     237.096
  C      239.949    -123.774     236.748
  O      240.708    -123.362     235.604
  C      240.332    -122.978     237.983
  O      241.711    -123.025     238.252
  C      239.721    -121.621     237.605
  N      239.627    -120.654     238.689
  C      240.721    -119.827     238.917
  O      241.765    -119.853     238.263
  N      240.593    -118.936     239.950
  C      239.496    -118.790     240.750
  O      239.428    -117.953     241.643
  C      238.373    -119.695     240.468
  C      238.484    -120.567     239.462
  O      233.626    -123.600     236.914
  O      235.258    -123.865     238.869
  H      234.402    -123.953     239.331
  H      241.949    -123.929     238.545
  H      241.374    -118.327     240.128
  H      237.492    -119.611     241.090
  H      237.668    -121.242     239.223
  H      240.282    -121.179     236.776
  H      239.840    -123.396     238.865
  H      240.027    -124.859     236.866
  H      238.273    -123.201     235.459
  H      237.728    -125.229     237.106
  H      237.335    -123.915     238.246
  P      241.738    -124.325     234.829
  C      243.999    -123.461     235.745
  O      243.116    -123.525     234.632
  O      241.191    -124.903     233.564
  O      242.108    -125.477     235.878
  H      242.367    -126.284     235.395
  H      244.871    -122.903     235.477
  H      244.284    -124.452     236.032
  H      243.506    -122.981     236.564

 6  7  8  9  10  11  12  13  14  15  16  27  31  32  33  34  35 0
 6-311+G(2d,p)
 ****
 36  37 0
 6-311+G(2d,p)
 ****
 1  2  3  4  5  17  18  19  20  21  22  23  24  25 0
 3-21G
 ****
 26  28  29  30  38  39  40  41  42  43  44  45 0
 3-21G
 ****


