%nproc=1
%NoSave
%Mem=1900MB
#P OB98/GEN NMR

erre ene a

0 1
  C      -65.035    -201.281    -273.950
  O      -64.207    -200.188    -274.374
  P      -62.771    -200.578    -274.989
  C      -61.826    -200.777    -272.583
  O      -61.971    -201.387    -273.850
  C      -62.020    -201.793    -271.439
  O      -61.089    -202.909    -271.591
  C      -61.818    -201.200    -270.040
  O      -62.747    -201.867    -269.156
  C      -60.388    -201.628    -269.713
  O      -60.057    -201.506    -268.347
  C      -60.387    -203.020    -270.318
  N      -57.741    -207.340    -270.961
  C      -59.063    -207.114    -270.769
  N      -59.693    -205.930    -270.600
  C      -58.802    -204.907    -270.649
  C      -57.435    -204.994    -270.834
  C      -56.891    -206.278    -270.990
  N      -55.545    -206.529    -271.158
  N      -56.853    -203.721    -270.794
  C      -57.872    -202.922    -270.520
  N      -59.066    -203.567    -270.504
  O      -62.009    -199.185    -275.083
  O      -62.864    -201.274    -276.305
  H      -59.106    -201.672    -268.219
  H      -62.042    -198.838    -275.985
  H      -59.694    -207.991    -270.754
  H      -57.784    -201.852    -270.332
  H      -60.955    -203.736    -269.692
  H      -59.685    -200.973    -270.266
  H      -61.979    -200.115    -269.987
  H      -63.037    -202.203    -271.522
  H      -62.559    -199.969    -272.471
  H      -55.256    -207.493    -271.248
  H      -54.886    -205.778    -271.165
  H      -60.835    -200.307    -272.518
  P      -64.091    -201.098    -268.740
  C      -63.208    -200.102    -266.547
  O      -63.593    -199.830    -267.887
  O      -64.623    -202.063    -267.576
  O      -65.074    -200.848    -269.831
  H      -63.921    -202.265    -266.929
  H      -62.810    -199.164    -266.119
  H      -62.422    -200.856    -266.518
  H      -64.080    -200.416    -265.964
  H      -65.957    -200.901    -273.562
  H      -64.530    -201.837    -273.188
  H      -65.236    -201.921    -274.784

 3  4  5  6  7  8  9  10  11  12  22  25  29  30  31  32 0
 6-311+G(2d,p)
 ****
 33  36  37 0
 6-311+G(2d,p)
 ****
 1  2  13  14  15  16  17  18  19  20  21  23  24  26 0
 3-21G
 ****
 27  28  34  35  38  39  40  41  42  43  44  45  46  47  48 0
 3-21G
 ****


