%nproc=1
%NoSave
%Mem=1900MB
#P OB98/GEN NMR

erre ene a

0 1
  C      107.690     -69.840      17.114
  O      107.226     -68.723      16.370
  P      107.337     -67.274      17.052
  C      104.785     -66.883      16.901
  O      105.919     -66.991      17.751
  C      104.034     -65.580      17.157
  O      103.100     -65.353      16.066
  C      103.228     -65.564      18.466
  O      103.413     -64.300      19.120
  C      101.785     -65.632      17.995
  O      100.887     -65.063      18.942
  C      101.887     -64.866      16.677
  N       97.240     -63.231      15.567
  C       98.206     -62.662      16.373
  N       97.860     -61.526      17.018
  N       99.403     -63.161      16.537
  C       99.619     -64.284      15.806
  C       98.747     -64.937      14.968
  C       97.406     -64.404      14.842
  O       96.478     -64.911      14.216
  N       99.335     -66.032      14.389
  C      100.560     -66.045      14.879
  N      100.766     -65.032      15.782
  O      107.345     -66.288      15.792
  O      108.535     -67.065      17.911
  H      100.001     -65.060      18.531
  H      108.143     -65.725      15.819
  H       96.328     -62.814      15.491
  H      101.316     -66.782      14.636
  H      102.008     -63.791      16.865
  H      101.508     -66.679      17.835
  H       96.969     -61.070      16.909
  H      103.476     -66.377      19.158
  H       98.562     -61.083      17.596
  H      104.756     -64.753      17.139
  H      104.113     -67.728      17.090
  H      105.118     -66.925      15.859
  P      103.400     -64.328      20.726
  C      100.829     -63.960      20.929
  O      101.933     -64.820      21.140
  O      103.413     -62.780      21.125
  O      104.539     -65.085      21.328
  H      103.786     -62.660      22.018
  H      101.099     -63.081      20.336
  H      100.445     -63.628      21.897
  H      100.044     -64.513      20.405
  H      107.555     -70.732      16.539
  H      107.136     -69.916      18.026
  H      108.729     -69.713      17.337

 3  4  5  6  7  8  9  10  11  12  23  26  30  31  33  0
 6-311+G(2d,p)
 ****
 35  36  37  38 0
 6-311+G(2d,p)
 ****
 1  2  13  14  15  16  17  18  19  20  21  22  24  25  27  28  29 0
 3-21G
 ****
 32  34  39  40  41  42  43  44  45  46  47  48  49 0
 3-21G
 ****


