%nproc=1
%NoSave
%Mem=1900MB
#P OB98/GEN NMR

erre ene a

0 1
  C     -232.814      22.792     167.593
  O     -232.401      21.550     167.052
  H     -233.878      22.927     167.386
  H     -232.260      23.620     167.140
  H     -232.665      22.797     168.677
  P     -230.826      21.235     167.000
  C     -231.290      19.528     165.115
  O     -230.550      20.680     165.516
  C     -231.993      19.767     163.774
  O     -233.111      20.657     163.952
  C     -231.109      20.439     162.733
  O     -230.063      19.624     162.249
  C     -232.131      21.010     161.759
  O     -232.549      20.078     160.765
  C     -233.318      21.339     162.699
  N     -233.488      22.777     162.884
  C     -234.703      23.303     162.455
  O     -235.590      22.628     161.931
  N     -234.857      24.655     162.612
  C     -233.911      25.515     163.096
  O     -234.096      26.725     163.173
  C     -232.638      24.904     163.506
  C     -232.485      23.582     163.383
  O     -230.304      20.344     168.087
  O     -230.150      22.684     166.977
  H     -233.201      20.538     160.199
  H     -229.193      22.635     167.211
  H     -235.735      25.052     162.321
  H     -231.865      25.556     163.892
  H     -231.552      23.105     163.678
  H     -234.254      20.944     162.281
  H     -231.739      21.883     161.235
  H     -230.623      21.301     163.206
  H     -232.373      18.805     163.408
  H     -232.042      19.334     165.885
  H     -230.620      18.665     165.048
  P     -228.521      19.901     162.556
  C     -228.056      18.658     160.321
  O     -227.694      19.730     161.186
  O     -227.966      19.298     163.808
  O     -228.521      21.503     162.754
  H     -227.850      21.716     163.431
  H     -227.425      18.669     159.457
  H     -229.076      18.772     160.020
  H     -227.938      17.728     160.837

 6  7  8  9  10  11  12  13  14  15  16  26  31  32  33  34  35 0
 6-311+G(2d,p)
 ****
 36  37 0
 6-311+G(2d,p)
 ****
 1  2  3  4  5  17  18  19  20  21  22  23  24  25 0
 3-21G
 ****
 27  28  29  30  38  39  40  41  42  43  44  45 0
 3-21G
 ****


