%nproc=1
%NoSave
%Mem=1900MB
#P OB98/GEN NMR

erre ene a

0 1
  C     -334.267     -49.958       5.794
  O     -335.387     -50.341       6.563
  H     -334.517     -49.049       5.241
  H     -334.003     -50.742       5.078
  H     -333.413     -49.746       6.445
  P     -335.317     -51.716       7.382
  C     -336.608     -51.978       9.607
  O     -336.692     -51.837       8.197
  C     -337.975     -52.341      10.202
  O     -338.868     -51.200      10.056
  C     -338.652     -53.540       9.517
  O     -339.462     -54.193      10.501
  C     -339.517     -52.844       8.485
  O     -340.481     -53.715       7.948
  C     -340.015     -51.648       9.303
  N     -340.569     -50.593       8.469
  C     -341.890     -50.222       8.737
  O     -342.525     -50.788       9.627
  N     -342.468     -49.243       7.971
  C     -341.810     -48.728       6.980
  N     -342.445     -47.773       6.251
  C     -340.433     -49.133       6.626
  C     -339.876     -50.057       7.409
  O     -334.085     -51.923       8.198
  O     -335.465     -52.845       6.255
  H     -341.176     -53.924       8.614
  H     -334.598     -53.258       6.088
  H     -339.935     -48.685       5.780
  H     -338.870     -50.420       7.227
  H     -340.781     -51.961      10.023
  H     -338.909     -52.496       7.643
  H     -337.936     -54.245       9.086
  H     -337.856     -52.516      11.278
  H     -343.392     -47.533       6.522
  H     -336.266     -51.022      10.013
  H     -342.042     -47.316       5.446
  H     -335.879     -52.752       9.866
  P     -339.138     -55.660      11.063
  C     -340.271     -56.351      13.276
  O     -340.409     -56.213      11.865
  O     -337.854     -55.747      11.824
  O     -339.079     -56.597       9.765
  H     -338.448     -57.324       9.925
  H     -341.184     -56.727      13.689
  H     -340.050     -55.397      13.708
  H     -339.475     -57.033      13.492

 6  7  8  9  10  11  12  13  14  15  16  26  30  31  32  33  35 0
 6-311+G(2d,p)
 ****
 37  38 0
 6-311+G(2d,p)
 ****
 1  2  3  4  5  17  18  19  20  21  22  23  24  25 0
 3-21G
 ****
 27  28  29  34  36  39  40  41  42  43  44  45  46 0
 3-21G
 ****


