%nproc=1
%NoSave
%Mem=1900MB
#P OB98/GEN NMR

erre ene a

0 1
  C        1.826     212.154    -182.995
  O        0.526     211.708    -183.327
  H        1.801     213.235    -182.847
  H        2.511     211.929    -183.818
  H        2.179     211.677    -182.075
  P        0.263     210.127    -183.288
  C        0.372     209.771    -180.723
  O       -0.447     209.803    -181.881
  C       -0.364     209.084    -179.570
  O       -1.029     210.101    -178.771
  C       -1.432     208.080    -180.027
  O       -1.417     206.956    -179.139
  C       -2.732     208.846    -179.862
  O       -3.856     207.987    -179.674
  C       -2.413     209.724    -178.655
  N       -6.747     211.557    -176.846
  C       -6.125     210.343    -176.616
  N       -6.760     209.484    -175.788
  N       -4.984     210.002    -177.156
  C       -4.451     210.976    -177.936
  C       -4.969     212.211    -178.245
  C       -6.247     212.565    -177.663
  O       -6.860     213.613    -177.846
  N       -4.142     212.898    -179.099
  C       -3.128     212.077    -179.308
  N       -3.266     210.903    -178.619
  O        1.734     209.517    -183.116
  O       -0.426     209.563    -184.487
  H       -3.860     207.340    -180.414
  H        1.968     208.993    -183.905
  H       -7.633     211.761    -176.415
  H       -2.281     212.279    -179.948
  H       -2.549     209.198    -177.703
  H       -2.916     209.457    -180.752
  H       -7.613     209.700    -175.298
  H       -1.285     207.733    -181.051
  H       -6.301     208.602    -175.574
  H        0.377     208.603    -178.919
  H        0.621     210.797    -180.437
  H        1.297     209.228    -180.947
  P       -0.334     205.809    -179.435
  C        1.969     206.154    -178.299
  O        0.636     205.687    -178.159
  O        0.598     206.469    -180.556
  O       -0.930     204.522    -179.908
  H        0.431     206.046    -181.419
  H        2.495     206.011    -177.378
  H        1.958     207.195    -178.546
  H        2.458     205.608    -179.078

 6  7  8  9  10  11  12  13  14  15  26  29  33  34 0
 6-311+G(2d,p)
 ****
 36  38  39  40  41 0
 6-311+G(2d,p)
 ****
 1  2  3  4  5  16  17  18  19  20  21  22  23  24  25 0
 3-21G
 ****
 27  28  30  31  32  35  37  42  43  44  45  46  47 0
 3-21G
 ****
 48  49 0
 3-21G
 ****


