%nproc=1
%NoSave
%Mem=1900MB
#P OB98/GEN NMR

erre ene a

0 1
  C      371.966      48.958    -180.545
  O      373.081      49.061    -179.681
  H      371.383      48.078    -180.258
  H      372.285      48.844    -181.584
  H      371.331      49.843    -180.448
  P      374.229      50.121    -180.056
  C      373.302      51.965    -178.501
  O      373.561      51.569    -179.849
  C      374.125      53.200    -178.126
  O      373.955      54.233    -179.115
  C      373.709      53.834    -176.809
  O      374.013      53.056    -175.669
  C      374.274      55.242    -176.929
  O      375.634      55.345    -176.519
  C      374.171      55.496    -178.455
  N      373.129      56.465    -178.778
  C      373.266      57.720    -178.195
  O      374.186      58.018    -177.433
  N      372.281      58.625    -178.487
  C      371.171      58.379    -179.242
  O      370.299      59.220    -179.430
  C      371.068      57.023    -179.811
  C      372.039      56.142    -179.556
  O      374.872      49.937    -181.397
  O      375.254      50.017    -178.832
  H      375.664      55.130    -175.567
  H      376.127      50.417    -179.065
  H      372.368      59.543    -178.082
  H      370.198      56.796    -180.412
  H      371.980      55.133    -179.963
  H      375.121      55.887    -178.842
  H      373.706      55.954    -176.333
  H      372.619      53.941    -176.815
  H      375.186      52.912    -178.110
  H      373.583      51.130    -177.850
  H      372.232      52.167    -178.377
  P      373.328      53.282    -174.242
  C      371.887      51.127    -174.128
  O      371.902      52.540    -174.247
  O      373.423      54.655    -173.661
  O      374.210      52.306    -173.310
  H      374.281      52.722    -172.429
  H      370.876      50.778    -174.147
  H      372.346      50.842    -173.204
  H      372.428      50.695    -174.943

 6  7  8  9  10  11  12  13  14  15  16  26  31  32  33  34  35 0
 6-311+G(2d,p)
 ****
 36  37 0
 6-311+G(2d,p)
 ****
 1  2  3  4  5  17  18  19  20  21  22  23  24  25 0
 3-21G
 ****
 27  28  29  30  38  39  40  41  42  43  44  45 0
 3-21G
 ****


