%nproc=1
%NoSave
%Mem=1900MB
#P OB98/GEN NMR

erre ene a

0 1
  C      364.807    -592.894     -41.968
  O      365.576    -593.987     -41.505
  H      364.537    -593.080     -43.011
  H      365.388    -591.976     -41.910
  H      363.889    -592.798     -41.382
  P      366.001    -593.971     -39.958
  C      365.180    -596.432     -39.876
  O      366.202    -595.500     -39.521
  C      365.763    -597.822     -40.096
  O      366.743    -597.757     -41.182
  C      366.470    -598.414     -38.869
  O      366.241    -599.828     -38.865
  C      367.943    -598.170     -39.173
  O      368.803    -599.042     -38.441
  C      367.942    -598.393     -40.684
  N      370.510    -598.200     -45.017
  C      369.297    -598.797     -44.718
  N      368.666    -599.446     -45.716
  N      368.746    -598.756     -43.527
  C      369.472    -598.049     -42.617
  C      370.678    -597.425     -42.782
  C      371.289    -597.491     -44.103
  O      372.366    -597.003     -44.422
  N      371.098    -596.838     -41.611
  C      370.151    -597.116     -40.753
  N      369.130    -597.853     -41.308
  O      364.647    -593.539     -39.231
  O      367.140    -593.060     -39.613
  H      369.734    -598.802     -38.664
  H      364.623    -592.570     -39.096
  H      370.890    -598.270     -45.945
  H      370.132    -596.802     -39.712
  H      367.898    -599.455     -40.952
  H      368.210    -597.135     -38.923
  H      369.007    -599.476     -46.673
  H      366.149    -597.986     -37.914
  H      367.758    -599.852     -45.527
  H      364.960    -598.489     -40.446
  H      364.696    -596.088     -40.805
  H      364.429    -596.458     -39.080
  P      365.098    -600.412     -37.902
  C      365.122    -602.372     -39.606
  O      364.866    -601.959     -38.275
  O      363.770    -599.705     -38.472
  O      365.292    -600.120     -36.450
  H      363.113    -599.612     -37.755
  H      364.924    -603.419     -39.699
  H      366.146    -602.180     -39.848
  H      364.489    -601.828     -40.276

 6  7  8  9  10  11  12  13  14  15  26  29  33  34 0
 6-311+G(2d,p)
 ****
 36  38  39  40  41 0
 6-311+G(2d,p)
 ****
 1  2  3  4  5  16  17  18  19  20  21  22  23  24  25 0
 3-21G
 ****
 27  28  30  31  32  35  37  42  43  44  45  46  47 0
 3-21G
 ****
 48  49 0
 3-21G
 ****


