%nproc=1
%NoSave
%Mem=1900MB
#P OB98/GEN NMR

erre ene a

0 1
  C      139.711     216.532    -194.216
  O      138.989     217.675    -194.631
  H      140.101     216.713    -193.211
  H      140.550     216.345    -194.893
  H      139.050     215.660    -194.191
  P      138.425     217.657    -196.139
  C      135.982     218.564    -195.993
  O      137.362     218.864    -196.155
  C      135.144     219.816    -196.236
  O      134.974     220.561    -195.006
  C      135.761     220.805    -197.224
  O      135.601     220.416    -198.577
  C      134.941     222.043    -196.895
  O      133.619     221.909    -197.446
  C      134.914     221.976    -195.353
  N      136.022     222.706    -194.729
  C      135.903     224.101    -194.673
  O      134.914     224.665    -195.135
  N      136.934     224.830    -194.128
  C      137.978     224.224    -193.652
  N      138.967     225.002    -193.128
  C      138.141     222.761    -193.677
  C      137.137     222.072    -194.220
  O      137.486     216.361    -196.165
  O      139.449     217.706    -197.223
  H      133.729     221.756    -198.403
  H      136.971     216.338    -197.009
  H      139.035     222.298    -193.282
  H      137.184     220.986    -194.271
  H      133.970     222.371    -194.957
  H      135.363     222.962    -197.303
  H      136.812     221.007    -196.995
  H      134.145     219.494    -196.564
  H      138.850     226.006    -193.180
  H      135.826     218.199    -194.968
  H      139.876     224.635    -192.873
  H      135.680     217.782    -196.697
  P      136.820     220.719    -199.582
  C      136.811     218.518    -200.969
  O      136.528     219.915    -200.934
  O      138.041     219.922    -198.925
  O      137.134     222.172    -199.761
  H      138.884     220.396    -199.065
  H      136.564     218.128    -201.934
  H      136.230     218.018    -200.223
  H      137.852     218.360    -200.776

 6  7  8  9  10  11  12  13  14  15  16  26  30  31  32  33  35 0
 6-311+G(2d,p)
 ****
 37  38 0
 6-311+G(2d,p)
 ****
 1  2  3  4  5  17  18  19  20  21  22  23  24  25 0
 3-21G
 ****
 27  28  29  34  36  39  40  41  42  43  44  45  46 0
 3-21G
 ****


