%nproc=1
%NoSave
%Mem=1900MB
#P OB98/GEN NMR

erre ene a

0 1
  C     -770.920     -66.626     230.023
  O     -770.656     -67.402     231.184
  P     -771.912     -68.033     231.959
  C     -770.857     -70.377     232.295
  O     -771.334     -69.180     232.919
  C     -769.665     -70.941     233.059
  O     -768.456     -70.250     232.626
  C     -769.758     -70.812     234.581
  O     -769.321     -72.041     235.190
  C     -768.719     -69.749     234.916
  O     -768.234     -69.872     236.243
  C     -767.682     -70.021     233.822
  N     -763.763     -67.579     235.870
  C     -764.339     -68.782     236.236
  N     -763.838     -69.383     237.340
  N     -765.331     -69.333     235.584
  C     -765.707     -68.636     234.485
  C     -765.202     -67.445     234.019
  C     -764.151     -66.808     234.784
  O     -763.665     -65.699     234.569
  N     -765.833     -67.056     232.852
  C     -766.719     -68.008     232.626
  N     -766.715     -68.963     233.612
  O     -772.670     -68.849     230.807
  O     -772.830     -67.047     232.609
  H     -767.717     -69.069     236.440
  H     -773.604     -68.549     230.741
  H     -763.011     -67.187     236.421
  H     -767.401     -68.039     231.792
  H     -767.123     -70.939     234.047
  H     -769.176     -68.761     234.796
  H     -763.058     -69.026     237.874
  H     -770.755     -70.550     234.950
  H     -764.232     -70.277     237.611
  H     -769.537     -71.998     232.767
  H     -770.564     -70.148     231.266
  H     -771.680     -71.109     232.281
  P     -770.316     -72.668     236.293
  C     -770.327     -75.078     235.307
  O     -769.951     -74.229     236.371
  O     -771.746     -72.648     235.548
  O     -770.341     -71.922     237.588
  H     -772.468     -72.635     236.206
  H     -770.718     -74.519     234.442
  H     -771.108     -75.759     235.657
  H     -769.464     -75.671     235.001
  H     -769.997     -66.272     229.613
  H     -771.538     -65.792     230.284
  H     -771.424     -67.230     229.298

 3  4  5  6  7  8  9  10  11  12  23  26  30  31  33  0
 6-311+G(2d,p)
 ****
 35  36  37  38 0
 6-311+G(2d,p)
 ****
 1  2  13  14  15  16  17  18  19  20  21  22  24  25  27  28  29 0
 3-21G
 ****
 32  34  39  40  41  42  43  44  45  46  47  48  49 0
 3-21G
 ****


