%nproc=1
%NoSave
%Mem=1900MB
#P OB98/GEN NMR

erre ene a

0 1
  C      200.117     622.742    -279.650
  O      199.014     622.473    -278.809
  H      200.275     623.820    -279.692
  H      199.914     622.372    -280.661
  H      201.022     622.268    -279.255
  P      198.725     620.931    -278.468
  C      201.221     620.437    -277.801
  O      200.124     620.173    -278.663
  C      201.703     619.154    -277.121
  O      202.007     618.173    -278.148
  C      202.960     619.343    -276.271
  O      202.863     618.480    -275.131
  C      204.074     618.855    -277.176
  O      205.230     618.452    -276.442
  C      203.365     617.735    -277.949
  N      204.025     617.422    -279.217
  C      205.325     616.926    -279.147
  O      205.877     616.777    -278.054
  N      205.992     616.646    -280.311
  C      205.436     616.901    -281.452
  N      206.158     616.623    -282.572
  C      204.074     617.469    -281.579
  C      203.433     617.690    -280.431
  O      197.861     620.471    -279.731
  O      198.060     620.701    -277.146
  H      205.586     619.237    -275.973
  H      198.220     620.781    -280.578
  H      203.655     617.673    -282.550
  H      202.427     618.097    -280.427
  H      203.330     616.811    -277.348
  H      204.375     619.654    -277.862
  H      203.099     620.375    -275.940
  H      200.878     618.746    -276.525
  H      207.092     616.260    -282.442
  H      200.933     621.169    -277.035
  H      205.848     616.829    -283.510
  H      202.024     620.874    -278.403
  P      203.745     618.792    -273.824
  C      202.253     620.709    -272.918
  O      203.535     620.327    -273.409
  O      205.159     618.324    -273.870
  O      202.940     618.017    -272.668
  H      203.596     617.595    -272.080
  H      202.258     621.753    -272.682
  H      202.026     620.146    -272.037
  H      201.513     620.516    -273.666

 6  7  8  9  10  11  12  13  14  15  16  26  30  31  32  33  35 0
 6-311+G(2d,p)
 ****
 37  38 0
 6-311+G(2d,p)
 ****
 1  2  3  4  5  17  18  19  20  21  22  23  24  25 0
 3-21G
 ****
 27  28  29  34  36  39  40  41  42  43  44  45  46 0
 3-21G
 ****


