%nproc=1
%NoSave
%Mem=1900MB
#P OB98/GEN NMR

erre ene a

0 1
  C      112.408     164.044     193.042
  O      113.572     164.632     192.489
  P      114.381     165.671     193.410
  C      115.817     164.305     195.099
  O      115.748     164.950     193.833
  C      117.024     163.369     195.145
  O      116.863     162.305     194.188
  C      118.351     164.030     194.798
  O      118.826     164.821     195.876
  C      119.200     162.803     194.485
  O      119.640     162.183     195.705
  C      118.191     161.893     193.765
  N      120.760     160.352     189.611
  C      120.941     160.107     190.929
  N      120.231     160.571     191.976
  C      119.231     161.362     191.555
  C      118.935     161.721     190.252
  C      119.749     161.176     189.247
  N      119.562     161.435     187.906
  N      117.850     162.572     190.211
  C      117.489     162.714     191.470
  N      118.283     161.992     192.318
  O      113.536     165.688     194.766
  O      114.533     167.041     192.826
  H      120.290     162.786     196.118
  H      113.552     166.575     195.176
  H      121.771     159.448     191.173
  H      116.663     163.322     191.813
  H      118.312     160.837     194.031
  H      120.092     163.036     193.895
  H      118.247     164.653     193.901
  H      117.070     162.926     196.148
  H      114.908     163.717     195.259
  H      120.278     161.125     187.267
  H      118.901     162.156     187.649
  H      115.880     165.065     195.882
  P      119.844     166.013     195.521
  C      117.791     167.497     195.093
  O      118.995     167.342     195.824
  O      119.855     165.961     193.924
  O      121.172     165.924     196.186
  H      118.959     165.926     193.552
  H      117.291     168.407     195.430
  H      117.131     166.641     195.266
  H      118.012     167.591     194.025
  H      111.971     163.378     192.328
  H      111.705     164.811     193.291
  H      112.669     163.499     193.925

 3  4  5  6  7  8  9  10  11  12  22  25  29  30  31  32 0
 6-311+G(2d,p)
 ****
 33  36  37 0
 6-311+G(2d,p)
 ****
 1  2  13  14  15  16  17  18  19  20  21  23  24  26 0
 3-21G
 ****
 27  28  34  35  38  39  40  41  42  43  44  45  46  47  48 0
 3-21G
 ****


