%nproc=1
%NoSave
%Mem=1900MB
#P OB98/GEN NMR

erre ene a

0 1
  C      100.875      39.055      76.740
  O      100.734      37.756      77.288
  P      101.902      36.658      77.159
  C      101.014      36.005      74.820
  O      102.120      36.453      75.585
  C      101.330      36.092      73.324
  O      101.734      37.451      73.016
  C      102.455      35.157      72.861
  O      102.128      34.725      71.534
  C      103.667      36.069      72.842
  O      104.702      35.588      71.999
  C      103.030      37.387      72.384
  N      103.840      38.549      72.728
  C      104.665      39.082      71.736
  O      104.723      38.570      70.619
  N      105.417      40.192      72.033
  C      105.410      40.676      73.235
  N      106.124      41.813      73.463
  C      104.636      40.080      74.341
  C      103.867      39.045      74.012
  O      101.667      35.403      77.924
  O      103.229      37.443      77.578
  H      105.199      34.903      72.485
  H      103.379      37.455      78.556
  H      104.685      40.502      75.334
  H      103.246      38.558      74.751
  H      102.852      37.365      71.304
  H      104.072      36.158      73.856
  H      102.572      34.283      73.507
  H      100.408      35.889      72.765
  H      106.497      42.287      72.647
  H      100.159      36.650      75.037
  H      105.913      42.413      74.252
  H      100.756      34.980      75.109
  P      102.809      33.379      70.983
  C      105.070      34.367      70.181
  O      104.398      33.540      71.107
  O      102.581      33.527      69.400
  O      102.220      32.092      71.462
  H      102.575      32.638      68.995
  H      106.138      34.364      70.420
  H      104.703      35.394      70.247
  H      104.939      33.989      69.164
  H       99.990      39.623      76.936
  H      101.025      38.982      75.683
  H      101.717      39.541      77.187

 3  4  5  6  7  8  9  10  11  12  13  23  27  28  29  30  32 0
 6-311+G(2d,p)
 ****
 34  35 0
 6-311+G(2d,p)
 ****
 1  2  14  15  16  17  18  19  20  21  22  24  25  26 0
 3-21G
 ****
 31  33  36  37  38  39  40  41  42  43  44  45  46 0
 3-21G
 ****


