%nproc=1
%NoSave
%Mem=1900MB
#P OB98/GEN NMR

erre ene a

0 1
  C       19.882     -18.174     -39.491
  O       18.675     -18.690     -40.015
  H       20.624     -18.971     -39.398
  H       20.268     -17.413     -40.175
  H       19.705     -17.715     -38.514
  P       17.960     -19.854     -39.173
  C       18.985     -21.819     -40.538
  O       18.936     -21.123     -39.300
  C       19.176     -23.308     -40.271
  O       20.489     -23.548     -39.715
  C       18.187     -23.884     -39.265
  O       16.938     -24.206     -39.852
  C       18.928     -25.135     -38.825
  O       18.812     -26.150     -39.838
  C       20.375     -24.624     -38.744
  N       22.340     -25.846     -34.178
  C       22.161     -26.568     -35.305
  N       21.651     -26.163     -36.486
  C       21.317     -24.865     -36.439
  C       21.447     -23.999     -35.365
  C       21.983     -24.540     -34.184
  N       22.138     -23.816     -33.023
  N       20.974     -22.744     -35.692
  C       20.585     -22.848     -36.947
  N       20.741     -24.118     -37.432
  O       16.710     -20.270     -40.082
  O       17.577     -19.506     -37.774
  H       19.387     -26.891     -39.566
  H       16.081     -20.811     -39.568
  H       22.465     -27.609     -35.249
  H       20.175     -22.040     -37.540
  H       21.109     -25.393     -39.012
  H       18.531     -25.558     -37.899
  H       18.061     -23.222     -38.401
  H       19.119     -23.839     -41.230
  H       19.825     -21.439     -41.128
  H       22.390     -24.327     -32.192
  H       21.741     -22.889     -32.973
  H       18.054     -21.650     -41.086
  P       15.611     -23.781     -39.051
  C       15.066     -26.194     -38.258
  O       15.419     -24.867     -37.885
  O       14.442     -24.136     -40.083
  O       15.575     -22.351     -38.623
  H       13.692     -23.520     -39.984
  H       14.974     -26.799     -37.380
  H       15.826     -26.600     -38.893
  H       14.133     -26.181     -38.781

 6  7  8  9  10  11  12  13  14  15  25  28  32  33  34  35 0
 6-311+G(2d,p)
 ****
 36  39  40 0
 6-311+G(2d,p)
 ****
 1  2  3  4  5  16  17  18  19  20  21  22  23  24 0
 3-21G
 ****
 26  27  29  30  31  37  38  41  42  43  44  45  46  47 0
 3-21G
 ****
 48 0
 3-21G
 ****


