%nproc=1
%NoSave
%Mem=1900MB
#P OB98/GEN NMR

erre ene a

0 1
  C      595.152    -483.608    -323.371
  O      595.817    -482.458    -322.884
  H      594.279    -483.833    -322.747
  H      594.813    -483.412    -324.391
  H      595.831    -484.465    -323.381
  P      596.407    -482.539    -321.393
  C      598.635    -481.332    -321.970
  O      597.408    -481.291    -321.254
  C      599.301    -479.960    -321.920
  O      598.514    -479.000    -322.661
  C      599.447    -479.383    -320.515
  O      600.571    -479.917    -319.833
  C      599.643    -477.913    -320.839
  O      600.989    -477.687    -321.296
  C      598.651    -477.714    -321.994
  N      595.872    -473.647    -320.597
  C      597.164    -473.775    -320.953
  N      597.832    -474.892    -321.306
  C      597.016    -475.962    -321.265
  C      595.678    -475.990    -320.917
  C      595.094    -474.756    -320.570
  N      593.775    -474.625    -320.195
  N      595.186    -477.282    -320.960
  C      596.203    -478.009    -321.368
  N      597.340    -477.262    -321.555
  O      597.396    -483.798    -321.447
  O      595.393    -482.655    -320.300
  H      600.961    -476.888    -321.856
  H      597.557    -484.135    -320.544
  H      597.745    -472.852    -320.954
  H      596.178    -479.082    -321.533
  H      599.011    -476.992    -322.738
  H      599.481    -477.260    -319.977
  H      598.528    -479.506    -319.932
  H      600.278    -480.040    -322.414
  H      598.433    -481.601    -323.009
  H      593.507    -473.741    -319.793
  H      593.238    -475.460    -320.031
  H      599.286    -482.091    -321.524
  P      600.424    -480.157    -318.254
  C      602.318    -481.943    -318.201
  O      601.860    -480.666    -317.751
  O      599.513    -481.469    -318.167
  O      599.839    -479.010    -317.493
  H      599.014    -481.494    -317.330
  H      603.283    -482.143    -317.785
  H      602.383    -481.942    -319.269
  H      601.630    -482.700    -317.886

 6  7  8  9  10  11  12  13  14  15  25  28  32  33  34  35 0
 6-311+G(2d,p)
 ****
 36  39  40 0
 6-311+G(2d,p)
 ****
 1  2  3  4  5  16  17  18  19  20  21  22  23  24 0
 3-21G
 ****
 26  27  29  30  31  37  38  41  42  43  44  45  46  47 0
 3-21G
 ****
 48 0
 3-21G
 ****


