%nproc=1
%NoSave
%Mem=1900MB
#P OB98/GEN NMR

erre ene a

0 1
  C      544.672    -171.068     105.884
  O      545.073    -170.467     104.649
  P      543.946    -169.638     103.854
  C      544.226    -167.381     105.115
  O      543.396    -168.502     104.844
  C      543.479    -166.079     104.836
  O      542.317    -165.958     105.677
  C      544.291    -164.820     105.098
  O      545.179    -164.535     104.030
  C      543.195    -163.766     105.180
  O      542.822    -163.345     103.857
  C      542.045    -164.541     105.844
  N      538.786    -163.674     109.630
  C      538.546    -163.913     108.290
  N      537.246    -163.955     107.913
  N      539.488    -164.098     107.406
  C      540.733    -164.055     107.929
  C      541.101    -163.824     109.236
  C      540.047    -163.589     110.203
  O      540.206    -163.340     111.396
  N      542.463    -163.868     109.390
  C      542.916    -164.155     108.185
  N      541.909    -164.267     107.264
  O      542.727    -170.678     103.774
  O      544.376    -169.172     102.505
  H      543.649    -163.167     103.370
  H      542.175    -170.482     102.992
  H      538.019    -163.531     110.268
  H      543.962    -164.297     107.933
  H      541.081    -164.337     105.363
  H      543.509    -162.871     105.721
  H      536.470    -163.898     108.552
  H      544.821    -164.884     106.056
  H      537.049    -164.170     106.941
  H      543.143    -166.096     103.787
  H      545.122    -167.424     104.495
  H      544.554    -167.427     106.157
  P      546.518    -163.716     104.378
  C      548.137    -165.720     104.705
  O      547.381    -164.690     105.311
  O      545.996    -162.585     105.381
  O      547.219    -163.142     103.196
  H      546.563    -161.790     105.316
  H      548.645    -165.360     103.807
  H      547.475    -166.555     104.434
  H      548.883    -166.079     105.416
  H      545.503    -171.587     106.314
  H      543.875    -171.759     105.702
  H      544.338    -170.308     106.559

 3  4  5  6  7  8  9  10  11  12  23  26  30  31  33  0
 6-311+G(2d,p)
 ****
 35  36  37  38 0
 6-311+G(2d,p)
 ****
 1  2  13  14  15  16  17  18  19  20  21  22  24  25  27  28  29 0
 3-21G
 ****
 32  34  39  40  41  42  43  44  45  46  47  48  49 0
 3-21G
 ****


