%nproc=1
%NoSave
%Mem=1900MB
#P OB98/GEN NMR

erre ene a

0 1
  C      -41.650      35.601    -180.746
  O      -42.522      35.018    -181.693
  H      -41.005      36.319    -181.260
  H      -41.023      34.842    -180.272
  H      -42.226      36.134    -179.984
  P      -43.393      33.749    -181.236
  C      -42.586      32.001    -182.958
  O      -42.506      32.461    -181.610
  C      -41.596      30.860    -183.206
  O      -40.247      31.317    -182.983
  C      -41.777      29.677    -182.269
  O      -42.961      28.941    -182.490
  C      -40.428      28.977    -182.361
  O      -40.336      28.065    -183.451
  C      -39.467      30.168    -182.594
  N      -38.642      30.441    -181.423
  C      -37.580      29.569    -181.214
  O      -37.338      28.604    -181.940
  N      -36.815      29.815    -180.106
  C      -37.038      30.794    -179.183
  O      -36.341      30.937    -178.187
  C      -38.192      31.670    -179.444
  C      -38.931      31.458    -180.536
  O      -44.794      33.694    -181.768
  O      -43.314      33.789    -179.639
  H      -39.447      27.661    -183.412
  H      -44.018      33.228    -179.233
  H      -36.035      29.199    -179.943
  H      -38.402      32.456    -178.731
  H      -39.789      32.090    -180.750
  H      -38.794      29.953    -183.434
  H      -40.208      28.413    -181.452
  H      -41.851      30.063    -181.245
  H      -41.681      30.551    -184.254
  H      -42.337      32.843    -183.612
  H      -43.609      31.675    -183.175
  P      -43.613      27.980    -181.393
  C      -44.118      25.812    -182.735
  O      -43.273      26.459    -181.790
  O      -45.002      28.309    -180.950
  O      -42.635      28.227    -180.133
  H      -43.178      28.165    -179.323
  H      -43.771      24.813    -182.899
  H      -44.099      26.352    -183.659
  H      -45.119      25.785    -182.358

 6  7  8  9  10  11  12  13  14  15  16  26  31  32  33  34  35 0
 6-311+G(2d,p)
 ****
 36  37 0
 6-311+G(2d,p)
 ****
 1  2  3  4  5  17  18  19  20  21  22  23  24  25 0
 3-21G
 ****
 27  28  29  30  38  39  40  41  42  43  44  45 0
 3-21G
 ****


