%nproc=1
%NoSave
%Mem=1900MB
#P OB98/GEN NMR

erre ene a

0 1
  C     -186.087    -649.582     144.240
  O     -186.428    -648.268     143.840
  H     -186.790    -649.906     145.011
  H     -185.077    -649.600     144.663
  H     -186.153    -650.273     143.393
  P     -185.536    -647.557     142.714
  C     -184.441    -646.142     144.585
  O     -184.236    -647.037     143.506
  C     -183.239    -645.202     144.725
  O     -182.098    -645.892     145.284
  C     -182.732    -644.613     143.415
  O     -183.568    -643.604     142.882
  C     -181.388    -644.067     143.883
  O     -181.595    -642.854     144.624
  C     -180.909    -645.217     144.794
  N     -180.029    -646.164     144.097
  C     -178.685    -645.798     143.984
  O     -178.278    -644.735     144.439
  N     -177.826    -646.648     143.315
  C     -178.281    -647.745     142.797
  N     -177.385    -648.542     142.144
  C     -179.697    -648.154     142.875
  C     -180.509    -647.333     143.538
  O     -186.233    -646.528     141.877
  O     -184.928    -648.769     141.854
  H     -181.969    -642.206     144.007
  H     -184.377    -648.381     141.134
  H     -180.029    -649.064     142.394
  H     -181.559    -647.561     143.631
  H     -180.376    -644.821     145.672
  H     -180.712    -643.834     143.054
  H     -182.545    -645.404     142.680
  H     -183.522    -644.415     145.443
  H     -176.429    -648.236     142.098
  H     -184.589    -646.731     145.497
  H     -177.670    -649.377     141.634
  H     -185.333    -645.535     144.405
  P     -183.796    -643.623     141.279
  C     -181.666    -642.385     140.396
  O     -182.334    -643.621     140.620
  O     -184.366    -642.155     140.985
  O     -184.701    -644.708     140.777
  H     -185.338    -642.178     140.902
  H     -180.710    -642.571     139.953
  H     -181.534    -641.877     141.328
  H     -182.251    -641.777     139.738

 6  7  8  9  10  11  12  13  14  15  16  26  30  31  32  33  35 0
 6-311+G(2d,p)
 ****
 37  38 0
 6-311+G(2d,p)
 ****
 1  2  3  4  5  17  18  19  20  21  22  23  24  25 0
 3-21G
 ****
 27  28  29  34  36  39  40  41  42  43  44  45  46 0
 3-21G
 ****


