%nproc=1
%NoSave
%Mem=1900MB
#P OB98/GEN NMR

erre ene a

0 1
  C     -418.693     -46.563     491.438
  O     -419.773     -46.052     490.681
  H     -417.764     -46.116     491.070
  H     -418.623     -47.650     491.323
  H     -418.810     -46.307     492.496
  P     -421.251     -46.566     491.028
  C     -421.164     -48.087     488.944
  O     -421.383     -48.011     490.346
  C     -420.429     -49.380     488.596
  O     -419.172     -49.449     489.302
  C     -421.197     -50.655     488.964
  O     -422.169     -50.944     487.970
  C     -420.056     -51.659     489.006
  O     -419.677     -52.020     487.665
  C     -418.943     -50.833     489.676
  N     -417.022     -53.281     493.679
  C     -416.868     -53.528     492.332
  N     -416.126     -54.616     492.006
  N     -417.404     -52.800     491.390
  C     -418.170     -51.791     491.872
  C     -418.416     -51.458     493.185
  C     -417.776     -52.236     494.216
  O     -417.870     -52.041     495.427
  N     -419.307     -50.414     493.279
  C     -419.563     -50.095     492.027
  N     -418.915     -50.913     491.127
  O     -422.374     -45.630     490.689
  O     -421.192     -46.897     492.593
  H     -420.465     -52.425     487.253
  H     -421.472     -46.128     493.126
  H     -416.598     -53.894     494.362
  H     -420.212     -49.287     491.713
  H     -417.949     -51.113     489.318
  H     -420.322     -52.576     489.538
  H     -415.941     -55.352     492.671
  H     -421.641     -50.581     489.961
  H     -416.041     -54.839     491.018
  H     -420.198     -49.362     487.521
  H     -420.569     -47.216     488.653
  H     -422.123     -48.057     488.405
  P     -423.739     -50.915     488.312
  C     -423.764     -53.487     488.081
  O     -424.067     -52.370     488.900
  O     -424.616     -50.482     487.183
  O     -423.851     -49.979     489.602
  H     -423.956     -49.017     489.394
  H     -424.032     -54.388     488.593
  H     -422.716     -53.497     487.865
  H     -424.316     -53.419     487.167

 6  7  8  9  10  11  12  13  14  15  26  29  33  34 0
 6-311+G(2d,p)
 ****
 36  38  39  40  41 0
 6-311+G(2d,p)
 ****
 1  2  3  4  5  16  17  18  19  20  21  22  23  24  25 0
 3-21G
 ****
 27  28  30  31  32  35  37  42  43  44  45  46  47 0
 3-21G
 ****
 48  49 0
 3-21G
 ****


