%nproc=1
%NoSave
%Mem=1900MB
#P OB98/GEN NMR

erre ene a

0 1
  C      -54.671      31.029      16.074
  O      -53.639      30.234      15.521
  P      -53.378      28.792      16.170
  C      -52.489      27.911      18.458
  O      -52.744      29.032      17.622
  C      -51.166      28.111      19.198
  O      -50.053      27.944      18.293
  C      -51.004      29.503      19.793
  O      -51.732      29.638      21.002
  C      -49.496      29.586      19.979
  O      -49.092      28.954      21.205
  C      -48.981      28.792      18.761
  N      -48.472      29.657      17.702
  C      -47.104      29.910      17.729
  O      -46.357      29.460      18.598
  N      -46.628      30.732      16.745
  C      -47.376      31.358      15.791
  O      -46.898      32.130      14.968
  C      -48.821      31.077      15.829
  C      -49.295      30.258      16.771
  O      -52.161      28.201      15.315
  O      -54.559      27.883      16.155
  H      -48.117      29.013      21.239
  H      -52.267      27.236      15.210
  H      -45.636      30.908      16.732
  H      -49.445      31.557      15.087
  H      -50.357      30.050      16.825
  H      -48.175      28.114      19.067
  H      -49.141      30.620      20.020
  H      -51.317      30.261      19.063
  H      -51.087      27.347      19.981
  H      -52.437      27.008      17.845
  H      -53.314      27.800      19.168
  P      -52.476      31.039      21.252
  C      -51.614      33.504      21.299
  O      -51.303      32.128      21.313
  O      -52.958      30.855      22.768
  O      -53.573      31.298      20.275
  H      -52.338      30.314      23.286
  H      -52.540      33.711      21.842
  H      -51.715      33.843      20.266
  H      -50.797      34.054      21.774
  H      -54.729      31.957      15.544
  H      -54.460      31.220      17.105
  H      -55.604      30.511      15.991

 3  4  5  6  7  8  9  10  11  12  13  23  28  29  30  31  32 0
 6-311+G(2d,p)
 ****
 33  34 0
 6-311+G(2d,p)
 ****
 1  2  14  15  16  17  18  19  20  21  22  24  25  26 0
 3-21G
 ****
 27  35  36  37  38  39  40  41  42  43  44  45 0
 3-21G
 ****


