%nproc=1
%NoSave
%Mem=1900MB
#P OB98/GEN NMR

erre ene a

0 1
  C     -599.607      18.632      57.193
  O     -598.891      17.797      56.305
  H     -600.237      18.005      57.828
  H     -600.248      19.308      56.619
  H     -598.931      19.210      57.825
  P     -597.639      18.405      55.511
  C     -599.090      19.743      53.839
  O     -598.118      19.803      54.874
  C     -599.203      21.091      53.112
  O     -600.210      20.991      52.070
  C     -599.665      22.181      54.076
  O     -599.195      23.473      53.702
  C     -601.180      22.145      53.928
  O     -601.812      23.355      54.335
  C     -601.319      21.834      52.439
  N     -605.887      22.253      50.217
  C     -604.946      23.232      50.464
  N     -605.267      24.490      50.088
  N     -603.794      23.000      51.035
  C     -603.633      21.704      51.430
  C     -604.509      20.655      51.255
  C     -605.763      20.921      50.585
  O     -606.644      20.095      50.354
  N     -604.004      19.498      51.803
  C     -602.839      19.845      52.303
  N     -602.560      21.177      52.087
  O     -597.511      17.461      54.221
  O     -596.355      18.468      56.277
  H     -602.768      23.263      54.167
  H     -596.599      17.476      53.878
  H     -606.754      22.486      49.750
  H     -602.156      19.177      52.820
  H     -601.252      22.757      51.841
  H     -601.575      21.345      54.569
  H     -606.201      24.747      49.800
  H     -599.360      21.975      55.109
  H     -604.733      25.246      50.516
  H     -598.257      21.334      52.618
  H     -600.046      19.488      54.306
  H     -598.840      18.942      53.137
  P     -597.944      24.075      54.506
  C     -599.195      24.514      56.768
  O     -598.190      23.806      56.071
  O     -598.109      25.653      54.346
  O     -596.617      23.589      54.001
  H     -597.457      25.996      53.704
  H     -599.207      24.201      57.791
  H     -600.147      24.314      56.322
  H     -598.992      25.563      56.718

 6  7  8  9  10  11  12  13  14  15  26  29  33  34 0
 6-311+G(2d,p)
 ****
 36  38  39  40  41 0
 6-311+G(2d,p)
 ****
 1  2  3  4  5  16  17  18  19  20  21  22  23  24  25 0
 3-21G
 ****
 27  28  30  31  32  35  37  42  43  44  45  46  47 0
 3-21G
 ****
 48  49 0
 3-21G
 ****


