%nproc=1
%NoSave
%Mem=1900MB
#P OB98/GEN NMR

erre ene a

0 1
  C     -279.516      16.352    -136.044
  O     -280.847      16.804    -135.851
  P     -281.077      18.381    -135.653
  C     -281.799      18.281    -133.124
  O     -280.834      18.664    -134.093
  C     -281.903      19.351    -132.033
  O     -280.585      19.861    -131.720
  C     -282.722      20.575    -132.417
  O     -284.119      20.315    -132.350
  C     -282.220      21.598    -131.408
  O     -282.864      21.407    -130.138
  C     -280.724      21.234    -131.306
  N     -279.858      22.110    -132.089
  C     -279.928      23.469    -131.792
  O     -280.664      23.933    -130.923
  N     -279.127      24.286    -132.553
  C     -278.337      23.898    -133.593
  O     -277.676      24.677    -134.264
  C     -278.330      22.456    -133.881
  C     -279.077      21.644    -133.131
  O     -282.666      18.470    -135.841
  O     -280.275      19.215    -136.595
  H     -283.108      17.638    -135.602
  H     -282.320      21.882    -129.477
  H     -279.141      25.275    -132.338
  H     -277.720      22.109    -134.706
  H     -279.096      20.580    -133.335
  H     -280.396      21.271    -130.258
  H     -282.410      22.632    -131.721
  H     -282.458      20.897    -133.430
  H     -282.309      18.883    -131.127
  H     -281.501      17.331    -132.677
  H     -282.767      18.145    -133.615
  P     -285.008      20.869    -133.571
  C     -285.920      23.104    -132.568
  O     -285.013      22.465    -133.440
  O     -286.477      20.426    -133.108
  O     -284.598      20.336    -134.905
  H     -286.633      20.579    -132.158
  H     -285.545      24.104    -132.345
  H     -286.031      22.553    -131.631
  H     -286.893      23.190    -133.055
  H     -279.514      15.288    -136.161
  H     -278.922      16.619    -135.195
  H     -279.108      16.808    -136.922

 3  4  5  6  7  8  9  10  11  12  13  24  28  29  30  31  32 0
 6-311+G(2d,p)
 ****
 33  34 0
 6-311+G(2d,p)
 ****
 1  2  14  15  16  17  18  19  20  21  22  23  25  26  27 0
 3-21G
 ****
 35  36  37  38  39  40  41  42  43  44  45 0
 3-21G
 ****


