%nproc=1
%NoSave
%Mem=1900MB
#P OB98/GEN NMR

erre ene a

0 1
  C     -892.360    -890.725     265.095
  O     -892.740    -892.094     265.263
  P     -893.590    -892.568     266.536
  C     -892.490    -894.870     266.243
  O     -893.700    -894.140     266.392
  C     -892.800    -896.350     265.953
  O     -893.500    -896.910     267.084
  C     -893.670    -896.580     264.747
  O     -892.930    -896.440     263.542
  C     -894.180    -897.990     265.028
  O     -893.200    -898.970     264.692
  C     -894.370    -897.970     266.565
  N     -895.740    -897.730     266.976
  C     -896.520    -898.850     267.253
  O     -896.020    -900.000     267.170
  N     -897.810    -898.710     267.670
  C     -898.330    -897.520     267.753
  N     -899.600    -897.410     268.221
  C     -897.570    -896.290     267.418
  C     -896.310    -896.460     267.030
  O     -894.900    -891.860     266.716
  O     -892.580    -892.399     267.769
  H     -893.090    -898.960     263.720
  H     -892.620    -891.498     268.174
  H     -898.050    -895.320     267.499
  H     -895.680    -895.620     266.801
  H     -894.020    -898.900     267.004
  H     -895.100    -898.230     264.485
  H     -894.510    -895.880     264.737
  H     -891.830    -896.890     265.863
  H     -900.000    -898.250     268.607
  H     -891.930    -894.800     267.191
  H     -899.950    -896.530     268.603
  H     -891.890    -894.440     265.445
  P     -893.300    -895.200     262.592
  C     -893.100    -897.010     260.751
  O     -892.900    -895.660     261.100
  O     -892.170    -894.100     262.977
  O     -894.680    -894.670     262.768
  H     -892.550    -893.430     263.588
  H     -893.020    -897.100     259.669
  H     -894.100    -897.350     261.065
  H     -892.330    -897.630     261.223
  H     -891.802    -890.618     264.188
  H     -891.756    -890.418     265.923
  H     -893.237    -890.115     265.048

 3  4  5  6  7  8  9  10  11  12  13  23  27  28  29  30  32 0
 6-311+G(2d,p)
 ****
 34  35 0
 6-311+G(2d,p)
 ****
 1  2  14  15  16  17  18  19  20  21  22  24  25  26 0
 3-21G
 ****
 31  33  36  37  38  39  40  41  42  43  44  45  46 0
 3-21G
 ****


