%nproc=1
%NoSave
%Mem=1900MB
#P OB98/GEN NMR

erre ene a

0 1
  C     -117.010     -28.496      10.099
  O     -117.055     -27.088       9.970
  P     -118.042     -26.197      10.865
  C     -120.001     -26.701       9.274
  O     -119.516     -26.783      10.606
  C     -121.007     -25.562       9.115
  O     -121.483     -25.516       7.743
  C     -122.242     -25.665      10.027
  O     -122.609     -24.323      10.362
  C     -123.274     -26.287       9.108
  O     -124.606     -26.091       9.569
  C     -122.925     -25.609       7.778
  N     -123.459     -26.336       6.631
  C     -124.717     -25.940       6.162
  O     -125.353     -25.064       6.757
  N     -125.246     -26.573       5.070
  C     -124.626     -27.590       4.557
  N     -125.196     -28.178       3.465
  C     -123.357     -28.122       5.092
  C     -122.829     -27.445       6.119
  O     -117.912     -24.722      10.677
  O     -117.738     -26.680      12.359
  H     -125.224     -26.392       8.867
  H     -116.894     -26.279      12.689
  H     -122.906     -29.003       4.671
  H     -121.906     -27.760       6.579
  H     -123.318     -24.583       7.753
  H     -123.102     -27.371       9.039
  H     -122.067     -26.256      10.933
  H     -120.481     -24.616       9.307
  H     -126.056     -27.770       3.120
  H     -120.499     -27.646       9.036
  H     -124.754     -28.917       2.942
  H     -119.164     -26.580       8.576
  P     -123.151     -23.946      11.823
  C     -125.611     -24.600      11.571
  O     -124.362     -24.938      12.146
  O     -123.449     -22.496      12.034
  O     -121.992     -24.449      12.815
  H     -122.112     -24.033      13.692
  H     -126.271     -25.472      11.616
  H     -125.493     -24.302      10.523
  H     -126.063     -23.777      12.132
  H     -116.290     -28.894       9.415
  H     -117.974     -28.905       9.880
  H     -116.732     -28.754      11.100

 3  4  5  6  7  8  9  10  11  12  13  23  27  28  29  30  32 0
 6-311+G(2d,p)
 ****
 34  35 0
 6-311+G(2d,p)
 ****
 1  2  14  15  16  17  18  19  20  21  22  24  25  26 0
 3-21G
 ****
 31  33  36  37  38  39  40  41  42  43  44  45  46 0
 3-21G
 ****


