%nproc=1
%NoSave
%Mem=1900MB
#P OB98/GEN NMR

erre ene a

0 1
  C     -124.323    -222.013    -120.749
  O     -124.233    -222.137    -122.151
  H     -125.294    -222.397    -120.425
  H     -124.252    -220.959    -120.471
  H     -123.536    -222.579    -120.244
  P     -122.789    -222.088    -122.835
  C     -123.958    -221.808    -125.123
  O     -122.934    -221.342    -124.252
  C     -123.688    -221.412    -126.575
  O     -123.817    -219.980    -126.714
  C     -122.276    -221.778    -127.032
  O     -122.145    -223.098    -127.539
  C     -122.022    -220.744    -128.125
  O     -122.487    -221.207    -129.406
  C     -122.839    -219.529    -127.665
  N     -120.628    -214.951    -128.231
  C     -121.255    -215.736    -129.184
  N     -121.252    -215.251    -130.441
  N     -121.807    -216.890    -128.913
  C     -121.640    -217.290    -127.633
  C     -121.021    -216.608    -126.607
  C     -120.479    -215.295    -126.894
  O     -119.933    -214.555    -126.084
  N     -121.010    -217.347    -125.445
  C     -121.542    -218.501    -125.797
  N     -122.010    -218.487    -127.090
  O     -122.532    -223.611    -123.275
  O     -121.676    -221.596    -121.961
  H     -122.208    -220.557    -130.081
  H     -121.577    -223.804    -123.237
  H     -120.248    -214.060    -128.489
  H     -121.647    -219.360    -125.147
  H     -123.387    -219.077    -128.501
  H     -120.951    -220.547    -128.236
  H     -120.769    -214.411    -130.720
  H     -121.553    -221.609    -126.230
  H     -121.533    -215.879    -131.199
  H     -124.452    -221.866    -127.220
  H     -124.888    -221.356    -124.775
  H     -124.066    -222.891    -125.037
  P     -120.815    -223.947    -127.286
  C     -121.202    -225.098    -129.610
  O     -120.308    -224.519    -128.685
  O     -121.354    -225.246    -126.526
  O     -119.746    -223.248    -126.509
  H     -121.225    -225.161    -125.565
  H     -120.662    -225.416    -130.477
  H     -121.939    -224.376    -129.894
  H     -121.683    -225.941    -129.161

 6  7  8  9  10  11  12  13  14  15  26  29  33  34 0
 6-311+G(2d,p)
 ****
 36  38  39  40  41 0
 6-311+G(2d,p)
 ****
 1  2  3  4  5  16  17  18  19  20  21  22  23  24  25 0
 3-21G
 ****
 27  28  30  31  32  35  37  42  43  44  45  46  47 0
 3-21G
 ****
 48  49 0
 3-21G
 ****


