%nproc=1
%NoSave
%Mem=1900MB
#P OB98/GEN NMR

erre ene a

0 1
  C      421.386     869.212       8.589
  O      422.549     869.153       7.789
  H      421.617     868.805       9.579
  H      420.592     868.606       8.134
  H      421.047     870.248       8.700
  P      422.478     869.865       6.356
  C      424.064     868.009       5.388
  O      423.792     869.386       5.568
  C      425.541     867.782       5.047
  O      425.850     868.520       3.830
  C      426.505     868.265       6.127
  O      427.625     867.371       6.166
  C      426.960     869.627       5.626
  O      428.220     870.012       6.179
  C      426.964     869.390       4.105
  N      426.871     870.639       3.352
  C      428.081     871.269       3.028
  O      429.149     870.782       3.387
  N      428.039     872.468       2.349
  C      426.899     873.013       2.068
  N      426.928     874.208       1.423
  C      425.598     872.409       2.441
  C      425.670     871.242       3.065
  O      422.799     871.390       6.725
  O      421.188     869.662       5.629
  H      428.897     869.374       5.884
  H      423.540     871.490       7.346
  H      424.668     872.912       2.196
  H      424.755     870.711       3.368
  H      427.888     868.873       3.796
  H      426.232     870.393       5.893
  H      426.052     868.307       7.122
  H      425.688     866.726       4.823
  H      427.843     874.596       1.209
  H      423.439     867.592       4.589
  H      426.106     874.757       1.204
  H      423.811     867.484       6.326
  P      427.603     866.112       7.163
  C      430.197     866.195       7.321
  O      429.039     865.380       7.111
  O      426.426     865.211       7.039
  O      427.633     866.819       8.608
  H      427.030     866.319       9.192
  H      431.076     865.588       7.261
  H      430.143     866.649       8.288
  H      430.238     866.957       6.571

 6  7  8  9  10  11  12  13  14  15  16  26  30  31  32  33  35 0
 6-311+G(2d,p)
 ****
 37  38 0
 6-311+G(2d,p)
 ****
 1  2  3  4  5  17  18  19  20  21  22  23  24  25 0
 3-21G
 ****
 27  28  29  34  36  39  40  41  42  43  44  45  46 0
 3-21G
 ****


