%nproc=1
%NoSave
%Mem=1900MB
#P OB98/GEN NMR

erre ene a

0 1
  C     -265.589      28.969    -217.284
  O     -264.842      28.126    -218.139
  H     -265.399      30.012    -217.568
  H     -265.278      28.831    -216.247
  H     -266.660      28.771    -217.380
  P     -265.042      26.538    -218.026
  C     -267.414      26.565    -219.036
  O     -266.618      26.277    -217.896
  C     -267.896      25.264    -219.676
  O     -268.759      24.545    -218.766
  C     -268.712      25.467    -220.949
  O     -267.874      25.800    -222.041
  C     -269.410      24.116    -221.055
  O     -268.530      23.122    -221.599
  C     -269.718      23.810    -219.567
  N     -271.097      24.161    -219.188
  C     -271.994      23.099    -219.124
  O     -271.686      21.929    -219.366
  N     -273.286      23.433    -218.811
  C     -273.768      24.706    -218.652
  O     -274.965      24.976    -218.597
  C     -272.756      25.777    -218.662
  C     -271.486      25.458    -218.945
  O     -264.198      25.848    -217.006
  O     -264.718      26.011    -219.506
  H     -263.811      25.648    -219.528
  H     -269.038      22.287    -221.624
  H     -273.959      22.680    -218.806
  H     -273.086      26.792    -218.477
  H     -270.726      26.238    -218.982
  H     -269.564      22.747    -219.354
  H     -270.290      24.152    -221.701
  H     -269.469      26.246    -220.789
  H     -267.019      24.633    -219.879
  H     -266.796      27.119    -219.757
  H     -268.266      27.190    -218.737
  P     -268.401      26.709    -223.247
  C     -267.634      28.840    -222.039
  O     -268.723      28.168    -222.662
  O     -269.500      26.107    -224.059
  O     -267.097      26.960    -224.149
  H     -267.295      26.710    -225.074
  H     -267.959      29.797    -221.688
  H     -266.843      28.970    -222.748
  H     -267.281      28.258    -221.213

 6  7  8  9  10  11  12  13  14  15  16  27  31  32  33  34  35 0
 6-311+G(2d,p)
 ****
 36  37 0
 6-311+G(2d,p)
 ****
 1  2  3  4  5  17  18  19  20  21  22  23  24  25 0
 3-21G
 ****
 26  28  29  30  38  39  40  41  42  43  44  45 0
 3-21G
 ****


