%nproc=1
%NoSave
%Mem=1900MB
#P OB98/GEN NMR

erre ene a

0 1
  C     -105.980    -312.162      36.690
  O     -106.571    -311.428      35.629
  H     -106.761    -312.733      37.200
  H     -105.518    -311.488      37.417
  H     -105.231    -312.857      36.300
  P     -105.653    -310.386      34.824
  C     -104.288    -308.306      35.539
  O     -105.356    -309.196      35.853
  C     -104.820    -306.887      35.362
  O     -105.438    -306.428      36.582
  C     -103.732    -305.877      35.044
  O     -103.317    -305.982      33.697
  C     -104.427    -304.581      35.413
  O     -105.314    -304.150      34.372
  C     -105.223    -305.003      36.672
  N     -104.535    -304.659      37.915
  C     -104.600    -303.309      38.293
  O     -105.214    -302.493      37.598
  N     -103.948    -302.922      39.438
  C     -103.313    -303.801      40.152
  N     -102.680    -303.350      41.268
  C     -103.231    -305.229      39.790
  C     -103.857    -305.582      38.673
  O     -106.153    -309.938      33.486
  O     -104.240    -311.132      34.722
  H     -104.767    -303.627      33.753
  H     -104.202    -311.676      33.912
  H     -102.692    -305.923      40.414
  H     -103.849    -306.619      38.338
  H     -106.214    -304.532      36.682
  H     -103.714    -303.775      35.590
  H     -102.881    -306.009      35.722
  H     -105.591    -306.899      34.578
  H     -102.758    -302.356      41.475
  H     -103.839    -308.661      34.601
  H     -102.235    -303.949      41.948
  H     -103.525    -308.330      36.325
  P     -101.981    -305.251      33.193
  C     -101.327    -302.775      32.903
  O     -102.399    -303.718      32.965
  O     -101.288    -305.903      32.045
  O     -101.078    -305.189      34.514
  H     -100.703    -306.070      34.740
  H     -101.724    -301.793      32.749
  H     -100.676    -303.028      32.092
  H     -100.778    -302.798      33.821

 6  7  8  9  10  11  12  13  14  15  16  26  30  31  32  33  35 0
 6-311+G(2d,p)
 ****
 37  38 0
 6-311+G(2d,p)
 ****
 1  2  3  4  5  17  18  19  20  21  22  23  24  25 0
 3-21G
 ****
 27  28  29  34  36  39  40  41  42  43  44  45  46 0
 3-21G
 ****


