%nproc=1
%NoSave
%Mem=1900MB
#P OB98/GEN NMR

erre ene a

0 1
  C       -7.954      80.482    -190.217
  O       -7.918      81.870    -189.949
  H       -8.866      80.065    -189.781
  H       -7.092      79.982    -189.767
  H       -7.967      80.300    -191.295
  P       -6.666      82.712    -190.485
  C       -8.185      84.588    -191.404
  O       -7.219      83.590    -191.708
  C       -9.383      84.456    -192.338
  O       -9.893      83.109    -192.314
  C      -10.553      85.371    -191.976
  O      -10.325      86.684    -192.466
  C      -11.690      84.655    -192.687
  O      -11.630      84.932    -194.099
  C      -11.343      83.181    -192.418
  N      -15.497      81.190    -190.300
  C      -15.304      81.697    -191.572
  N      -16.387      81.712    -192.378
  N      -14.162      82.163    -192.004
  C      -13.189      82.147    -191.064
  C      -13.262      81.689    -189.769
  C      -14.518      81.124    -189.319
  O      -14.725      80.649    -188.207
  N      -12.088      81.897    -189.093
  C      -11.294      82.446    -189.990
  N      -11.919      82.634    -191.200
  O       -5.431      81.929    -190.814
  O       -6.406      83.796    -189.340
  H      -11.925      85.855    -194.214
  H       -5.750      83.475    -188.693
  H      -16.407      80.864    -190.021
  H      -10.260      82.725    -189.818
  H      -11.647      82.525    -193.242
  H      -12.676      84.961    -192.336
  H      -17.328      81.637    -192.011
  H      -10.757      85.364    -190.901
  H      -16.280      82.124    -193.295
  H       -9.035      84.651    -193.360
  H       -7.705      85.563    -191.531
  H       -8.517      84.491    -190.364
  P      -10.403      87.957    -191.488
  C       -8.733      89.350    -192.882
  O       -8.988      88.689    -191.650
  O      -10.785      87.642    -190.082
  O      -11.401      88.962    -192.221
  H      -12.351      88.819    -191.984
  H       -7.759      89.793    -192.854
  H       -9.467      90.113    -193.036
  H       -8.781      88.642    -193.683

 6  7  8  9  10  11  12  13  14  15  26  29  33  34 0
 6-311+G(2d,p)
 ****
 36  38  39  40  41 0
 6-311+G(2d,p)
 ****
 1  2  3  4  5  16  17  18  19  20  21  22  23  24  25 0
 3-21G
 ****
 27  28  30  31  32  35  37  42  43  44  45  46  47 0
 3-21G
 ****
 48  49 0
 3-21G
 ****


