%nproc=1
%NoSave
%Mem=1900MB
#P OB98/GEN NMR

erre ene a

0 1
  C     -247.360     155.759    -332.304
  O     -245.987     155.574    -332.591
  H     -247.506     155.679    -331.224
  H     -247.955     154.984    -332.799
  H     -247.682     156.750    -332.634
  P     -245.558     155.679    -334.134
  C     -245.225     153.141    -334.521
  O     -244.603     154.410    -334.364
  C     -244.220     152.116    -335.042
  O     -243.840     152.423    -336.395
  C     -242.918     152.052    -334.253
  O     -243.077     151.276    -333.075
  C     -242.006     151.371    -335.258
  O     -242.250     149.951    -335.254
  C     -242.472     151.978    -336.596
  N     -238.487     153.395    -339.505
  C     -238.915     152.181    -339.101
  N     -239.957     151.881    -338.294
  C     -240.584     152.999    -337.895
  C     -240.260     154.305    -338.223
  C     -239.163     154.487    -339.079
  N     -238.733     155.729    -339.500
  N     -241.131     155.191    -337.621
  C     -241.995     154.431    -336.983
  N     -241.686     153.096    -337.087
  O     -245.022     157.000    -334.568
  O     -246.912     155.222    -334.858
  H     -242.052     149.622    -334.357
  H     -247.336     154.500    -334.363
  H     -238.348     151.333    -339.478
  H     -242.867     154.789    -336.450
  H     -242.483     151.231    -337.399
  H     -240.950     151.513    -335.024
  H     -242.531     153.054    -334.037
  H     -244.715     151.138    -335.058
  H     -246.074     153.211    -335.205
  H     -237.842     155.780    -339.970
  H     -239.161     156.544    -339.083
  H     -245.598     152.835    -333.537
  P     -243.780     151.894    -331.776
  C     -241.805     151.539    -330.163
  O     -243.131     151.149    -330.508
  O     -245.270     151.891    -331.799
  O     -243.188     153.376    -331.665
  H     -243.878     153.997    -331.367
  H     -241.480     150.981    -329.310
  H     -241.789     152.584    -329.933
  H     -241.150     151.345    -330.987

 6  7  8  9  10  11  12  13  14  15  25  28  32  33  34  35 0
 6-311+G(2d,p)
 ****
 36  39  40 0
 6-311+G(2d,p)
 ****
 1  2  3  4  5  16  17  18  19  20  21  22  23  24 0
 3-21G
 ****
 26  27  29  30  31  37  38  41  42  43  44  45  46  47 0
 3-21G
 ****
 48 0
 3-21G
 ****


