%nproc=1
%NoSave
%Mem=1900MB
#P OB98/GEN NMR

erre ene a

0 1
  C       13.318      18.007     -54.866
  O       12.623      18.185     -53.653
  H       13.896      17.080     -54.801
  H       14.011      18.833     -55.041
  H       12.617      17.924     -55.700
  P       11.842      19.566     -53.399
  C        9.698      18.495     -52.485
  O       10.854      19.260     -52.162
  C       10.020      17.003     -52.572
  O       10.771      16.597     -51.397
  C        8.780      16.105     -52.660
  O        8.966      15.136     -53.695
  C        8.730      15.424     -51.300
  O        8.024      14.188     -51.343
  C       10.222      15.339     -50.960
  N       10.471      15.105     -49.542
  C       11.478      14.188     -49.227
  O       12.080      13.596     -50.125
  N       11.753      13.932     -47.909
  C       11.049      14.500     -46.982
  N       11.366      14.196     -45.694
  C        9.945      15.440     -47.268
  C        9.717      15.698     -48.555
  O       11.178      20.139     -54.605
  O       12.939      20.534     -52.750
  H        7.961      13.834     -50.429
  H       12.649      21.474     -52.853
  H        9.380      15.879     -46.462
  H        8.932      16.383     -48.859
  H       10.707      14.537     -51.533
  H        8.222      16.080     -50.582
  H        7.864      16.654     -52.863
  H       10.686      16.844     -53.429
  H       12.129      13.550     -45.541
  H        9.295      18.854     -53.438
  H       10.881      14.574     -44.893
  H        8.952      18.652     -51.697
  P        7.629      14.499     -54.314
  C        7.668      14.381     -56.902
  O        8.025      13.753     -55.680
  O        6.806      15.782     -54.802
  O        6.850      13.676     -53.340
  H        6.112      16.002     -54.154
  H        7.992      13.775     -57.722
  H        8.137      15.341     -56.960
  H        6.606      14.500     -56.945

 6  7  8  9  10  11  12  13  14  15  16  26  30  31  32  33  35 0
 6-311+G(2d,p)
 ****
 37  38 0
 6-311+G(2d,p)
 ****
 1  2  3  4  5  17  18  19  20  21  22  23  24  25 0
 3-21G
 ****
 27  28  29  34  36  39  40  41  42  43  44  45  46 0
 3-21G
 ****


