%nproc=1
%NoSave
%Mem=1900MB
#P OB98/GEN NMR

erre ene a

0 1
  C     -566.698    -110.628    -699.820
  O     -567.031    -111.036    -701.129
  H     -567.599    -110.671    -699.198
  H     -566.335    -109.594    -699.832
  H     -565.937    -111.287    -699.386
  P     -565.855    -111.240    -702.202
  C     -566.316    -113.749    -702.636
  O     -566.314    -112.429    -703.174
  C     -567.064    -114.708    -703.557
  O     -568.506    -114.484    -703.399
  C     -566.752    -114.535    -705.059
  O     -566.906    -115.825    -705.676
  C     -567.853    -113.582    -705.483
  O     -567.965    -113.456    -706.874
  C     -569.035    -114.214    -704.719
  N     -570.239    -113.389    -704.639
  C     -571.311    -113.733    -705.456
  O     -571.315    -114.685    -706.240
  N     -572.420    -112.923    -705.355
  C     -572.551    -111.850    -704.529
  O     -573.575    -111.189    -704.454
  C     -571.382    -111.531    -703.688
  C     -570.299    -112.311    -703.780
  O     -564.483    -111.378    -701.635
  O     -565.979    -109.947    -703.145
  H     -565.293    -109.298    -702.899
  H     -567.150    -113.037    -707.222
  H     -573.202    -113.166    -705.929
  H     -571.453    -110.677    -703.036
  H     -569.421    -112.104    -703.176
  H     -569.284    -115.171    -705.167
  H     -567.644    -112.571    -705.106
  H     -565.733    -114.164    -705.237
  H     -566.873    -115.739    -703.227
  H     -566.806    -113.718    -701.654
  H     -565.276    -114.082    -702.504
  P     -566.321    -116.189    -707.128
  C     -564.635    -118.004    -706.372
  O     -565.827    -117.718    -707.095
  O     -565.277    -115.233    -707.617
  O     -567.591    -116.201    -708.106
  H     -567.306    -116.005    -709.014
  H     -564.424    -119.051    -706.432
  H     -564.764    -117.725    -705.347
  H     -563.821    -117.451    -706.793

 6  7  8  9  10  11  12  13  14  15  16  27  31  32  33  34  35 0
 6-311+G(2d,p)
 ****
 36  37 0
 6-311+G(2d,p)
 ****
 1  2  3  4  5  17  18  19  20  21  22  23  24  25 0
 3-21G
 ****
 26  28  29  30  38  39  40  41  42  43  44  45 0
 3-21G
 ****


