%nproc=1
%NoSave
%Mem=1900MB
#P OB98/GEN NMR

erre ene a

0 1
  C     -722.312     110.580     337.756
  O     -722.206     111.096     336.441
  H     -722.956     109.696     337.735
  H     -722.766     111.330     338.410
  H     -721.328     110.289     338.143
  P     -721.053     112.185     336.182
  C     -719.072     110.548     335.794
  O     -719.673     111.507     336.655
  C     -718.004     111.215     334.933
  O     -717.110     111.989     335.752
  C     -717.128     110.231     334.145
  O     -717.748     109.830     332.934
  C     -715.911     111.112     333.876
  O     -716.207     112.020     332.798
  C     -715.765     111.875     335.194
  N     -711.067     111.667     337.121
  C     -711.558     112.409     336.058
  N     -710.678     113.208     335.427
  N     -712.797     112.379     335.665
  C     -713.574     111.513     336.375
  C     -713.198     110.717     337.440
  C     -711.829     110.784     337.881
  O     -711.335     110.152     338.820
  N     -714.254     109.983     337.912
  C     -715.260     110.316     337.127
  N     -714.901     111.234     336.174
  O     -721.342     113.282     337.315
  O     -721.049     112.798     334.824
  H     -715.385     112.480     332.581
  H     -721.790     114.045     336.904
  H     -710.101     111.725     337.383
  H     -716.262     109.921     337.201
  H     -715.381     112.894     335.034
  H     -715.035     110.520     333.564
  H     -709.696     113.258     335.661
  H     -716.830     109.377     334.761
  H     -711.013     113.771     334.657
  H     -718.509     111.909     334.249
  H     -719.843     110.115     335.150
  H     -718.623     109.757     336.409
  P     -717.251     108.475     332.239
  C     -719.452     107.147     332.641
  O     -718.059     107.266     332.924
  O     -715.768     108.311     332.820
  O     -717.259     108.479     330.750
  H     -715.114     108.442     332.098
  H     -719.851     106.303     333.163
  H     -719.592     107.014     331.589
  H     -719.958     108.035     332.959

 6  7  8  9  10  11  12  13  14  15  26  29  33  34 0
 6-311+G(2d,p)
 ****
 36  38  39  40  41 0
 6-311+G(2d,p)
 ****
 1  2  3  4  5  16  17  18  19  20  21  22  23  24  25 0
 3-21G
 ****
 27  28  30  31  32  35  37  42  43  44  45  46  47 0
 3-21G
 ****
 48  49 0
 3-21G
 ****


