%nproc=1
%NoSave
%Mem=1900MB
#P OB98/GEN NMR

erre ene a

0 1
  C      415.927    -356.895    -677.615
  O      417.265    -357.033    -677.161
  P      418.176    -358.130    -677.898
  C      420.408    -356.851    -678.363
  O      419.169    -357.329    -678.886
  C      421.088    -355.929    -679.378
  O      420.269    -354.762    -679.617
  C      422.446    -355.392    -678.935
  O      423.448    -356.389    -679.056
  C      422.598    -354.219    -679.902
  O      423.015    -354.679    -681.194
  C      421.161    -353.670    -679.974
  N      420.151    -348.647    -679.673
  C      420.363    -349.472    -680.729
  N      420.640    -350.794    -680.729
  C      420.704    -351.267    -679.466
  C      420.529    -350.551    -678.293
  C      420.235    -349.180    -678.422
  N      420.037    -348.351    -677.333
  N      420.689    -351.367    -677.192
  C      420.934    -352.563    -677.697
  N      420.941    -352.553    -679.066
  O      417.161    -358.839    -678.904
  O      418.841    -359.114    -676.986
  H      422.795    -353.984    -681.841
  H      417.380    -359.786    -679.020
  H      420.297    -349.003    -681.707
  H      421.103    -353.456    -677.114
  H      420.888    -353.330    -680.984
  H      423.334    -353.475    -679.560
  H      422.402    -355.029    -677.914
  H      421.177    -356.479    -680.327
  H      421.067    -357.700    -678.156
  H      419.983    -347.356    -677.515
  H      420.239    -348.704    -676.417
  H      420.222    -356.317    -677.417
  P      424.162    -356.876    -677.704
  C      423.267    -359.294    -677.691
  O      423.156    -357.988    -677.118
  O      423.907    -355.627    -676.738
  O      425.582    -357.300    -677.857
  H      422.974    -355.339    -676.751
  H      422.569    -359.955    -677.172
  H      424.288    -359.680    -677.558
  H      423.006    -359.258    -678.748
  H      415.433    -356.136    -677.044
  H      415.412    -357.825    -677.494
  H      415.928    -356.620    -678.649

 3  4  5  6  7  8  9  10  11  12  22  25  29  30  31  32 0
 6-311+G(2d,p)
 ****
 33  36  37 0
 6-311+G(2d,p)
 ****
 1  2  13  14  15  16  17  18  19  20  21  23  24  26 0
 3-21G
 ****
 27  28  34  35  38  39  40  41  42  43  44  45  46  47  48 0
 3-21G
 ****


