%nproc=1
%NoSave
%Mem=1900MB
#P OB98/GEN NMR

erre ene a

0 1
  C     -795.936     390.682      95.222
  O     -795.160     389.587      95.678
  H     -796.488     390.371      94.331
  H     -795.285     391.519      94.959
  H     -796.652     390.994      95.989
  P     -794.371     389.724      97.064
  C     -792.555     390.807      95.577
  O     -793.213     390.809      96.837
  C     -791.050     390.652      95.768
  O     -790.565     391.603      96.738
  C     -790.633     389.281      96.305
  O     -790.684     388.297      95.285
  C     -789.247     389.582      96.840
  O     -788.279     389.582      95.771
  C     -789.436     391.009      97.412
  N     -789.624     391.005      98.871
  C     -788.653     390.337      99.614
  O     -787.715     389.740      99.111
  N     -788.839     390.350     100.968
  C     -789.927     390.858     101.638
  O     -790.081     390.770     102.843
  C     -790.923     391.538     100.795
  C     -790.725     391.586      99.466
  O     -793.914     388.442      97.681
  O     -795.400     390.497      98.017
  H     -787.418     389.787      96.183
  H     -795.791     389.870      98.652
  H     -788.163     389.859     101.528
  H     -791.787     391.968     101.278
  H     -791.455     392.069      98.830
  H     -788.567     391.629      97.179
  H     -788.919     388.844      97.573
  H     -791.286     388.999      97.148
  H     -790.554     390.856      94.814
  H     -792.758     391.762      95.067
  H     -792.958     389.991      94.967
  P     -791.564     386.979      95.493
  C     -789.733     385.184      95.774
  O     -790.721     385.982      96.422
  O     -792.107     386.359      94.242
  O     -792.750     387.451      96.458
  H     -793.604     387.319      96.000
  H     -789.243     384.566      96.497
  H     -789.013     385.820      95.303
  H     -790.201     384.567      95.036

 6  7  8  9  10  11  12  13  14  15  16  26  31  32  33  34  35 0
 6-311+G(2d,p)
 ****
 36  37 0
 6-311+G(2d,p)
 ****
 1  2  3  4  5  17  18  19  20  21  22  23  24  25 0
 3-21G
 ****
 27  28  29  30  38  39  40  41  42  43  44  45 0
 3-21G
 ****


