%nproc=1
%NoSave
%Mem=1900MB
#P OB98/GEN NMR

erre ene a

0 1
  C      -34.308     106.397      12.937
  O      -32.968     106.671      13.304
  H      -34.783     107.328      12.615
  H      -34.870     105.998      13.785
  H      -34.335     105.684      12.108
  P      -32.105     105.491      13.959
  C      -30.287     105.088      12.162
  O      -31.519     104.652      12.726
  C      -30.220     104.700      10.688
  O      -31.118     105.521       9.914
  C      -28.841     104.903      10.077
  O      -27.954     103.879      10.480
  C      -29.184     104.930       8.601
  O      -29.362     103.605       8.082
  C      -30.522     105.705       8.609
  N      -30.355     107.123       8.304
  C      -30.467     107.477       6.955
  O      -30.698     106.622       6.103
  N      -30.290     108.794       6.610
  C      -30.042     109.678       7.525
  N      -29.877     110.963       7.116
  C      -29.931     109.347       8.958
  C      -30.092     108.063       9.273
  O      -32.783     104.659      15.004
  O      -30.814     106.243      14.532
  H      -29.962     103.153       8.708
  H      -30.968     106.534      15.450
  H      -29.728     110.118       9.687
  H      -30.028     107.735      10.305
  H      -31.219     105.276       7.878
  H      -28.401     105.411       8.016
  H      -28.448     105.887      10.352
  H      -30.546     103.658      10.590
  H      -29.952     111.143       6.120
  H      -29.484     104.597      12.720
  H      -29.768     111.745       7.743
  H      -30.174     106.173      12.274
  P      -26.672     104.218      11.382
  C      -27.252     102.269      12.967
  O      -27.028     103.671      12.850
  O      -26.206     105.634      11.321
  O      -25.579     103.166      10.866
  H      -25.223     103.422       9.981
  H      -27.479     102.028      13.984
  H      -26.373     101.741      12.663
  H      -28.073     101.986      12.342

 6  7  8  9  10  11  12  13  14  15  16  26  30  31  32  33  35 0
 6-311+G(2d,p)
 ****
 37  38 0
 6-311+G(2d,p)
 ****
 1  2  3  4  5  17  18  19  20  21  22  23  24  25 0
 3-21G
 ****
 27  28  29  34  36  39  40  41  42  43  44  45  46 0
 3-21G
 ****


