%nproc=1
%NoSave
%Mem=1900MB
#P OB98/GEN NMR

erre ene a

0 1
  C       -4.127      -9.405    -163.098
  O       -3.976      -9.631    -164.490
  P       -4.230      -8.401    -165.487
  C       -6.414      -9.494    -166.373
  O       -5.803      -8.340    -165.810
  C       -7.926      -9.298    -166.509
  O       -8.496      -9.017    -165.201
  C       -8.316      -8.138    -167.431
  O       -9.540      -8.464    -168.109
  C       -8.616      -7.005    -166.471
  O       -9.486      -6.038    -167.057
  C       -9.229      -7.777    -165.302
  N      -10.556      -3.504    -162.945
  C      -11.027      -4.039    -164.130
  N      -11.911      -3.282    -164.817
  N      -10.671      -5.207    -164.593
  C       -9.777      -5.846    -163.799
  C       -9.246      -5.430    -162.599
  C       -9.640      -4.127    -162.106
  O       -9.237      -3.584    -161.079
  N       -8.396      -6.366    -162.071
  C       -8.374      -7.333    -162.970
  N       -9.167      -7.048    -164.051
  O       -3.583      -8.917    -166.860
  O       -3.615      -7.112    -165.057
  H       -9.544      -5.290    -166.430
  H       -2.732      -8.462    -167.015
  H      -10.852      -2.593    -162.636
  H       -7.787      -8.241    -162.897
  H      -10.279      -8.031    -165.493
  H       -7.690      -6.502    -166.178
  H      -12.174      -2.346    -164.550
  H       -7.552      -7.870    -168.170
  H      -12.239      -3.631    -165.711
  H       -8.369     -10.238    -166.857
  H       -6.220     -10.351    -165.727
  H       -5.972      -9.699    -167.355
  P       -9.575      -8.150    -169.686
  C      -10.628      -5.821    -169.186
  O       -9.595      -6.551    -169.813
  O      -11.055      -8.584    -170.112
  O       -8.519      -8.855    -170.473
  H      -11.074      -8.824    -171.061
  H      -10.191      -5.172    -168.421
  H      -11.370      -6.473    -168.713
  H      -11.131      -5.202    -169.933
  H       -3.926     -10.311    -162.566
  H       -5.128      -9.086    -162.895
  H       -3.440      -8.647    -162.783

 3  4  5  6  7  8  9  10  11  12  23  26  30  31 0
 6-311+G(2d,p)
 ****
 33  35  36  37  38 0
 6-311+G(2d,p)
 ****
 1  2  13  14  15  16  17  18  19  20  21  22  24  25 0
 3-21G
 ****
 27  28  29  32  34  39  40  41  42  43  44  45  46  47  48  49 0
 3-21G
 ****


