%nproc=1
%NoSave
%Mem=1900MB
#P OB98/GEN NMR

erre ene a

0 1
  C      216.067    -150.746     -26.836
  O      215.116    -149.668     -26.849
  P      215.284    -148.490     -27.929
  C      212.796    -148.566     -28.713
  O      213.870    -147.785     -28.216
  C      211.458    -147.815     -28.598
  O      210.913    -147.969     -27.258
  C      211.552    -146.307     -28.873
  O      210.312    -145.911     -29.478
  C      211.662    -145.723     -27.478
  O      211.322    -144.347     -27.416
  C      210.699    -146.645     -26.720
  N      210.872    -146.637     -25.269
  C      210.152    -145.703     -24.531
  O      209.424    -144.844     -25.020
  N      210.318    -145.765     -23.169
  C      211.143    -146.614     -22.494
  O      211.269    -146.600     -21.276
  C      211.900    -147.560     -23.328
  C      211.733    -147.526     -24.652
  O      215.529    -149.314     -29.283
  O      216.419    -147.552     -27.684
  H      211.609    -144.015     -26.547
  H      216.275    -148.923     -29.776
  H      209.790    -145.104     -22.617
  H      212.564    -148.257     -22.830
  H      212.275    -148.224     -25.286
  H      209.665    -146.370     -26.963
  H      212.695    -145.827     -27.121
  H      212.392    -146.041     -29.523
  H      210.745    -148.286     -29.286
  H      212.729    -149.496     -28.140
  H      212.995    -148.820     -29.761
  P      210.357    -145.152     -30.895
  C      208.240    -146.405     -31.795
  O      208.872    -145.179     -31.491
  O      211.129    -146.248     -31.781
  O      211.045    -143.827     -30.866
  H      210.789    -147.148     -31.644
  H      208.441    -147.156     -31.027
  H      208.596    -146.772     -32.762
  H      207.164    -146.239     -31.853
  H      215.810    -151.439     -26.062
  H      217.047    -150.355     -26.655
  H      216.052    -151.246     -27.782

 3  4  5  6  7  8  9  10  11  12  13  23  28  29  30  31  32 0
 6-311+G(2d,p)
 ****
 33  34 0
 6-311+G(2d,p)
 ****
 1  2  14  15  16  17  18  19  20  21  22  24  25  26 0
 3-21G
 ****
 27  35  36  37  38  39  40  41  42  43  44  45 0
 3-21G
 ****


