%nproc=1
%NoSave
%Mem=1900MB
#P OB98/GEN NMR

erre ene a

0 1
  C     -517.383      53.686    -381.812
  O     -517.206      52.339    -382.208
  P     -516.163      51.403    -381.428
  C     -516.758      48.985    -382.058
  O     -515.899      50.092    -382.313
  C     -516.790      48.042    -383.266
  O     -517.620      48.585    -384.319
  C     -515.434      47.821    -383.907
  O     -514.597      46.985    -383.123
  C     -515.844      47.236    -385.255
  O     -516.140      45.840    -385.135
  C     -517.123      48.040    -385.563
  N     -516.903      49.083    -386.558
  C     -517.651      48.989    -387.735
  O     -518.389      48.019    -387.928
  N     -517.536      49.990    -388.662
  C     -516.663      50.929    -388.497
  N     -516.638      51.929    -389.423
  C     -515.737      50.980    -387.345
  C     -515.925      50.043    -386.411
  O     -516.493      51.133    -379.997
  O     -514.774      52.192    -381.542
  H     -514.368      52.259    -380.650
  H     -516.967      45.770    -384.624
  H     -514.976      51.744    -387.284
  H     -515.309      50.003    -385.519
  H     -517.911      47.369    -385.928
  H     -515.053      47.332    -386.009
  H     -514.927      48.786    -384.069
  H     -517.223      47.084    -382.942
  H     -517.297      51.872    -390.185
  H     -517.769      49.359    -381.857
  H     -516.243      52.845    -389.227
  H     -516.404      48.453    -381.171
  P     -513.172      47.575    -382.699
  C     -512.888      46.079    -380.599
  O     -512.401      46.429    -381.876
  O     -513.536      48.659    -381.575
  O     -512.396      48.188    -383.821
  H     -512.935      49.429    -381.648
  H     -512.511      45.087    -380.337
  H     -513.980      46.048    -380.585
  H     -512.535      46.797    -379.862
  H     -518.113      54.150    -382.442
  H     -516.453      54.208    -381.898
  H     -517.717      53.718    -380.796

 3  4  5  6  7  8  9  10  11  12  13  24  27  28  29  30  32 0
 6-311+G(2d,p)
 ****
 34  35 0
 6-311+G(2d,p)
 ****
 1  2  14  15  16  17  18  19  20  21  22  23  25  26 0
 3-21G
 ****
 31  33  36  37  38  39  40  41  42  43  44  45  46 0
 3-21G
 ****


