%nproc=1
%NoSave
%Mem=1900MB
#P OB98/GEN NMR

erre ene a

0 1
  C      601.079     482.734    -891.970
  O      602.186     483.211    -892.740
  P      602.731     482.231    -893.880
  C      603.369     484.270    -895.360
  O      603.789     483.045    -894.780
  C      604.455     484.832    -896.270
  O      605.589     485.334    -895.550
  C      605.013     483.806    -897.260
  O      604.122     483.658    -898.350
  C      606.351     484.454    -897.650
  O      606.169     485.422    -898.700
  C      606.771     485.127    -896.340
  N      611.696     483.941    -895.960
  C      611.016     484.566    -896.990
  N      611.761     484.971    -898.030
  N      609.725     484.803    -896.960
  C      609.128     484.360    -895.850
  C      609.693     483.739    -894.750
  C      611.113     483.474    -894.780
  O      611.762     482.937    -893.900
  N      608.750     483.476    -893.770
  C      607.616     483.824    -894.340
  N      607.780     484.422    -895.560
  O      601.457     482.063    -894.850
  O      603.201     480.908    -893.380
  H      605.779     486.232    -898.320
  H      601.098     481.162    -894.780
  H      612.684     483.770    -896.020
  H      606.636     483.702    -893.880
  H      607.195     486.138    -896.530
  H      607.044     483.716    -898.030
  H      612.756     484.820    -898.130
  H      605.181     482.864    -896.750
  H      611.283     485.453    -898.810
  H      604.013     485.683    -896.830
  H      603.130     485.005    -894.580
  H      602.440     484.090    -895.920
  P      603.530     482.205    -898.650
  C      601.209     483.247    -899.120
  O      602.224     482.374    -899.550
  O      602.944     481.750    -897.210
  O      604.528     481.217    -899.140
  H      603.201     480.830    -897.020
  H      600.699     483.667    -900.000
  H      601.620     484.085    -898.550
  H      600.479     482.696    -898.520
  H      600.805     483.471    -891.244
  H      601.355     481.828    -891.472
  H      600.248     482.546    -892.618

 3  4  5  6  7  8  9  10  11  12  23  26  30  31 0
 6-311+G(2d,p)
 ****
 33  35  36  37  38 0
 6-311+G(2d,p)
 ****
 1  2  13  14  15  16  17  18  19  20  21  22  24  25 0
 3-21G
 ****
 27  28  29  32  34  39  40  41  42  43  44  45  46  47  48  49 0
 3-21G
 ****


