%nproc=1
%NoSave
%Mem=1900MB
#P OB98/GEN NMR

erre ene a

0 1
  C      413.555     355.304     542.102
  O      413.920     354.885     540.803
  H      412.990     356.237     542.020
  H      414.447     355.491     542.705
  H      412.924     354.556     542.588
  P      414.677     353.482     540.629
  C      414.090     351.006     541.005
  O      413.592     352.333     540.916
  C      412.962     349.994     540.810
  O      412.014     350.134     541.898
  C      412.198     350.171     539.493
  O      411.862     348.882     538.988
  C      410.936     350.900     539.916
  O      409.847     350.656     539.026
  C      410.710     350.349     541.324
  N      406.363     352.902     541.611
  C      406.799     351.989     540.673
  N      405.964     351.729     539.639
  N      407.951     351.381     540.735
  C      408.679     351.723     541.828
  C      408.358     352.616     542.824
  C      407.082     353.292     542.736
  O      406.647     354.121     543.527
  N      409.371     352.710     543.749
  C      410.303     351.883     543.312
  N      409.931     351.266     542.142
  O      415.948     353.338     541.405
  O      414.927     353.367     539.054
  H      409.748     349.681     538.951
  H      415.845     353.611     538.830
  H      405.467     353.349     541.506
  H      411.253     351.698     543.791
  H      410.171     349.394     541.314
  H      411.122     351.980     539.941
  H      405.053     352.146     539.531
  H      412.766     350.729     538.741
  H      406.253     351.043     538.953
  H      413.388     348.985     540.883
  H      414.535     350.873     541.998
  H      414.865     350.858     540.245
  P      412.598     348.353     537.664
  C      414.859     347.290     537.031
  O      414.023     347.758     538.090
  O      412.617     349.302     536.517
  O      411.762     347.027     537.300
  H      411.788     346.899     536.332
  H      415.776     346.919     537.438
  H      415.067     348.096     536.358
  H      414.360     346.505     536.503

 6  7  8  9  10  11  12  13  14  15  26  29  33  34 0
 6-311+G(2d,p)
 ****
 36  38  39  40  41 0
 6-311+G(2d,p)
 ****
 1  2  3  4  5  16  17  18  19  20  21  22  23  24  25 0
 3-21G
 ****
 27  28  30  31  32  35  37  42  43  44  45  46  47 0
 3-21G
 ****
 48  49 0
 3-21G
 ****


