%nproc=1
%NoSave
%Mem=1900MB
#P OB98/GEN NMR

erre ene a

0 1
  C      495.327     355.936    -245.304
  O      496.311     355.589    -246.262
  P      497.523     356.581    -246.587
  C      497.932     358.640    -248.054
  O      496.954     357.749    -247.531
  C      497.310     359.629    -249.038
  O      496.776     358.896    -250.174
  C      496.160     360.472    -248.461
  O      496.230     361.754    -249.095
  C      494.926     359.732    -248.947
  O      493.757     360.540    -248.950
  C      495.398     359.290    -250.328
  N      491.128     357.955    -252.802
  C      491.582     359.153    -252.378
  N      492.721     359.422    -251.701
  C      493.415     358.299    -251.473
  C      493.066     357.001    -251.822
  C      491.862     356.848    -252.536
  N      491.401     355.640    -253.007
  N      494.014     356.108    -251.359
  C      494.914     356.852    -250.754
  N      494.628     358.185    -250.853
  O      498.766     355.925    -247.087
  O      497.788     357.334    -245.199
  H      493.465     360.662    -248.025
  H      498.607     356.994    -244.788
  H      490.958     360.007    -252.614
  H      495.785     356.478    -250.227
  H      495.358     360.108    -251.057
  H      494.735     358.866    -248.301
  H      496.187     360.576    -247.374
  H      498.107     360.280    -249.418
  H      498.688     358.045    -248.570
  H      490.601     355.661    -253.616
  H      492.045     354.855    -253.055
  H      498.417     359.178    -247.232
  P      495.861     363.076    -248.266
  C      493.914     363.833    -246.786
  O      494.526     362.739    -247.449
  O      495.825     364.337    -249.060
  O      496.985     363.124    -247.123
  H      497.019     364.022    -246.740
  H      494.435     364.024    -245.843
  H      492.872     363.581    -246.571
  H      493.943     364.735    -247.402
  H      494.607     355.148    -245.231
  H      494.838     356.839    -245.606
  H      495.793     356.084    -244.352

 3  4  5  6  7  8  9  10  11  12  22  25  29  30  31  32 0
 6-311+G(2d,p)
 ****
 33  36  37 0
 6-311+G(2d,p)
 ****
 1  2  13  14  15  16  17  18  19  20  21  23  24  26 0
 3-21G
 ****
 27  28  34  35  38  39  40  41  42  43  44  45  46  47  48 0
 3-21G
 ****


