%nproc=1
%NoSave
%Mem=1900MB
#P OB98/GEN NMR

erre ene a

0 1
  C     -558.583    -169.746      56.884
  O     -557.270    -169.344      56.519
  P     -557.080    -168.672      55.066
  C     -556.055    -170.010      53.097
  O     -557.133    -169.879      54.021
  C     -554.830    -170.603      53.785
  O     -555.212    -171.781      54.530
  C     -553.735    -171.072      52.837
  O     -552.917    -169.985      52.397
  C     -552.956    -172.019      53.730
  O     -552.047    -171.267      54.561
  C     -554.064    -172.658      54.580
  N     -553.337    -177.652      55.105
  C     -552.748    -176.588      55.773
  N     -551.849    -176.909      56.732
  N     -553.005    -175.334      55.515
  C     -553.949    -175.164      54.556
  C     -554.604    -176.130      53.818
  C     -554.271    -177.515      54.075
  O     -554.713    -178.488      53.474
  N     -555.500    -175.572      52.946
  C     -555.416    -174.275      53.178
  N     -554.465    -173.973      54.124
  O     -555.539    -168.246      55.068
  O     -557.982    -167.512      54.785
  H     -551.360    -170.908      53.980
  H     -555.404    -167.497      54.447
  H     -553.114    -178.590      55.350
  H     -556.024    -173.519      52.689
  H     -553.763    -172.730      55.632
  H     -552.343    -172.734      53.160
  H     -551.713    -177.856      57.062
  H     -554.154    -171.627      51.989
  H     -551.437    -176.152      57.256
  H     -554.438    -169.864      54.498
  H     -555.795    -169.019      52.709
  H     -556.371    -170.635      52.261
  P     -551.986    -170.264      51.121
  C     -549.477    -170.307      51.792
  O     -550.694    -171.020      51.695
  O     -551.449    -168.802      50.745
  O     -552.686    -170.921      49.979
  H     -551.213    -168.758      49.796
  H     -549.635    -169.266      52.067
  H     -548.950    -170.359      50.835
  H     -548.858    -170.780      52.555
  H     -558.566    -170.173      57.865
  H     -558.941    -170.473      56.185
  H     -559.232    -168.895      56.877

 3  4  5  6  7  8  9  10  11  12  23  26  30  31  33  0
 6-311+G(2d,p)
 ****
 35  36  37  38 0
 6-311+G(2d,p)
 ****
 1  2  13  14  15  16  17  18  19  20  21  22  24  25  27  28  29 0
 3-21G
 ****
 32  34  39  40  41  42  43  44  45  46  47  48  49 0
 3-21G
 ****


