%nproc=1
%NoSave
%Mem=1900MB
#P OB98/GEN NMR

erre ene a

0 1
  C     1890.690    -767.469     164.530
  O     1891.171    -768.794     164.597
  H     1891.401    -766.878     163.944
  H     1890.622    -767.037     165.530
  H     1889.720    -767.438     164.038
  P     1890.344    -769.884     165.434
  C     1890.177    -771.451     163.402
  O     1889.451    -770.669     164.352
  C     1889.882    -771.012     161.973
  O     1890.219    -769.609     161.823
  C     1890.664    -771.792     160.911
  O     1889.777    -772.189     159.861
  C     1891.666    -770.774     160.377
  O     1892.104    -771.070     159.061
  C     1890.855    -769.475     160.539
  N     1891.711    -768.294     160.457
  C     1892.115    -767.921     159.170
  O     1891.747    -768.570     158.179
  N     1892.963    -766.855     159.025
  C     1893.408    -766.249     160.079
  N     1894.269    -765.217     159.873
  C     1893.030    -766.628     161.455
  C     1892.182    -767.645     161.572
  O     1889.582    -769.334     166.600
  O     1891.427    -770.986     165.862
  H     1892.727    -770.363     158.768
  H     1891.089    -771.477     166.644
  H     1893.437    -766.082     162.303
  H     1891.843    -767.994     162.540
  H     1890.066    -769.394     159.774
  H     1892.536    -770.749     161.027
  H     1891.168    -772.674     161.305
  H     1888.801    -771.087     161.809
  H     1894.511    -764.994     158.909
  H     1889.911    -772.506     163.550
  H     1894.703    -764.688     160.612
  H     1891.252    -771.324     163.612
  P     1889.123    -773.651     160.007
  C     1886.691    -773.439     159.128
  O     1887.553    -773.465     160.251
  O     1889.686    -774.163     161.415
  O     1889.487    -774.573     158.882
  H     1890.329    -774.898     161.250
  H     1885.681    -773.309     159.457
  H     1886.776    -774.361     158.592
  H     1886.965    -772.627     158.487

 6  7  8  9  10  11  12  13  14  15  16  26  30  31  32  33  35 0
 6-311+G(2d,p)
 ****
 37  38 0
 6-311+G(2d,p)
 ****
 1  2  3  4  5  17  18  19  20  21  22  23  24  25 0
 3-21G
 ****
 27  28  29  34  36  39  40  41  42  43  44  45  46 0
 3-21G
 ****


