%nproc=1
%NoSave
%Mem=1900MB
#P OB98/GEN NMR

erre ene a

0 1
  C     -505.236    -580.406     -82.924
  O     -504.059    -581.132     -83.204
  H     -505.814    -580.948     -82.172
  H     -505.838    -580.319     -83.832
  H     -504.999    -579.409     -82.536
  P     -502.918    -580.379     -84.042
  C     -500.937    -582.019     -83.724
  O     -501.924    -581.508     -84.607
  C     -501.559    -583.021     -82.752
  O     -502.230    -584.055     -83.514
  C     -500.542    -583.706     -81.830
  O     -501.119    -583.862     -80.535
  C     -500.349    -585.068     -82.474
  O     -499.919    -586.058     -81.540
  C     -501.734    -585.325     -83.057
  N     -500.434    -590.042     -84.268
  C     -500.449    -589.405     -83.041
  N     -500.049    -590.135     -81.976
  N     -500.820    -588.164     -82.874
  C     -501.230    -587.570     -84.021
  C     -501.258    -588.089     -85.294
  C     -500.814    -589.456     -85.473
  O     -500.759    -590.065     -86.534
  N     -501.703    -587.158     -86.200
  C     -501.946    -586.081     -85.472
  N     -501.677    -586.283     -84.148
  O     -502.053    -579.651     -82.909
  O     -503.409    -579.406     -85.061
  H     -499.856    -586.910     -82.021
  H     -502.121    -578.683     -83.012
  H     -500.124    -590.995     -84.343
  H     -502.302    -585.135     -85.855
  H     -502.434    -585.722     -82.312
  H     -499.594    -585.001     -83.266
  H     -499.798    -591.106     -82.025
  H     -499.601    -583.157     -81.747
  H     -500.088    -589.703     -81.061
  H     -502.329    -582.505     -82.166
  H     -500.501    -581.189     -83.160
  H     -500.148    -582.508     -84.306
  P     -500.687    -582.801     -79.411
  C     -503.121    -582.799     -78.534
  O     -501.743    -582.882     -78.206
  O     -501.001    -581.391     -80.096
  O     -499.251    -582.903     -79.010
  H     -500.169    -580.945     -80.343
  H     -503.705    -582.866     -77.640
  H     -503.380    -583.603     -79.191
  H     -503.317    -581.865     -79.018

 6  7  8  9  10  11  12  13  14  15  26  29  33  34 0
 6-311+G(2d,p)
 ****
 36  38  39  40  41 0
 6-311+G(2d,p)
 ****
 1  2  3  4  5  16  17  18  19  20  21  22  23  24  25 0
 3-21G
 ****
 27  28  30  31  32  35  37  42  43  44  45  46  47 0
 3-21G
 ****
 48  49 0
 3-21G
 ****


