%nproc=1
%NoSave
%Mem=1900MB
#P OB98/GEN NMR

erre ene a

0 1
  C      332.134     515.046    -474.234
  O      333.019     514.763    -473.144
  P      334.519     514.209    -473.377
  C      335.495     516.583    -473.147
  O      335.425     515.398    -473.941
  C      336.908     517.182    -473.145
  O      337.813     516.331    -472.418
  C      337.518     517.368    -474.535
  O      337.000     518.527    -475.153
  C      339.005     517.437    -474.191
  O      339.362     518.749    -473.740
  C      339.129     516.422    -473.046
  N      341.737     512.245    -471.671
  C      341.440     513.389    -471.017
  N      340.743     514.463    -471.454
  C      340.313     514.257    -472.698
  C      340.539     513.147    -473.509
  C      341.294     512.111    -472.947
  N      341.611     510.948    -473.629
  N      339.958     513.320    -474.742
  C      339.373     514.515    -474.686
  N      339.555     515.114    -473.470
  O      334.576     512.948    -474.181
  O      335.103     513.979    -471.900
  H      338.758     518.991    -473.020
  H      335.766     513.262    -471.913
  H      341.814     513.452    -469.985
  H      338.809     514.957    -475.501
  H      339.812     516.761    -472.274
  H      339.651     517.202    -475.052
  H      337.323     516.491    -475.150
  H      336.865     518.135    -472.606
  H      335.214     516.317    -472.126
  H      342.168     510.260    -473.164
  H      341.322     510.852    -474.588
  H      334.791     517.304    -473.544
  P      336.390     518.434    -476.638
  C      334.971     520.539    -476.278
  O      334.969     519.164    -476.625
  O      336.403     517.069    -477.250
  O      337.303     519.451    -477.473
  H      337.346     519.151    -478.412
  H      335.034     520.645    -475.189
  H      334.031     520.986    -476.625
  H      335.813     521.052    -476.745
  H      331.199     515.400    -473.852
  H      331.972     514.154    -474.803
  H      332.569     515.795    -474.862

 3  4  5  6  7  8  9  10  11  12  22  25  29  30  31  32 0
 6-311+G(2d,p)
 ****
 33  36  37 0
 6-311+G(2d,p)
 ****
 1  2  13  14  15  16  17  18  19  20  21  23  24  26 0
 3-21G
 ****
 27  28  34  35  38  39  40  41  42  43  44  45  46  47  48 0
 3-21G
 ****


