%nproc=1
%NoSave
%Mem=1900MB
#P OB98/GEN NMR

erre ene a

0 1
  C      -54.916     -32.781     -44.882
  O      -53.654     -33.279     -45.263
  P      -52.860     -32.789     -46.555
  C      -51.585     -30.604     -47.217
  O      -52.600     -31.212     -46.427
  C      -52.143     -29.413     -48.009
  O      -53.092     -29.913     -48.985
  C      -52.909     -28.438     -47.099
  O      -52.664     -27.066     -47.381
  C      -54.346     -28.928     -47.210
  O      -55.309     -27.955     -46.837
  C      -54.401     -29.400     -48.660
  N      -58.789     -30.532     -50.959
  C      -57.981     -29.424     -51.124
  N      -58.502     -28.415     -51.855
  N      -56.794     -29.310     -50.588
  C      -56.457     -30.350     -49.791
  C      -57.172     -31.501     -49.554
  C      -58.467     -31.629     -50.177
  O      -59.265     -32.544     -49.967
  N      -56.549     -32.308     -48.637
  C      -55.472     -31.630     -48.292
  N      -55.390     -30.420     -48.942
  O      -53.328     -33.321     -47.870
  O      -51.387     -33.395     -46.280
  H      -56.158     -28.415     -46.702
  H      -51.009     -33.636     -47.150
  H      -59.731     -30.528     -51.333
  H      -54.740     -31.951     -47.561
  H      -54.617     -28.574     -49.341
  H      -54.462     -29.770     -46.520
  H      -59.467     -28.415     -52.155
  H      -52.578     -28.545     -46.060
  H      -58.045     -27.510     -51.783
  H      -51.327     -28.928     -48.553
  H      -51.225     -31.379     -47.904
  H      -50.746     -30.294     -46.592
  P      -52.849     -25.799     -46.428
  C      -51.671     -24.880     -44.343
  O      -51.998     -26.035     -45.093
  O      -54.359     -25.887     -45.907
  O      -52.609     -24.481     -47.088
  H      -54.746     -24.991     -45.875
  H      -50.879     -25.136     -43.634
  H      -52.549     -24.542     -43.787
  H      -51.317     -24.078     -44.999
  H      -55.235     -33.267     -43.984
  H      -55.624     -32.971     -45.661
  H      -54.847     -31.727     -44.712

 3  4  5  6  7  8  9  10  11  12  23  26  30  31 0
 6-311+G(2d,p)
 ****
 33  35  36  37  38 0
 6-311+G(2d,p)
 ****
 1  2  13  14  15  16  17  18  19  20  21  22  24  25 0
 3-21G
 ****
 27  28  29  32  34  39  40  41  42  43  44  45  46  47  48  49 0
 3-21G
 ****


