%nproc=1
%NoSave
%Mem=1900MB
#P OB98/GEN NMR

erre ene a

0 1
  C      746.873    -930.247     310.234
  O      746.786    -931.551     310.804
  P      745.628    -932.617     310.474
  C      744.093    -932.636     312.615
  O      744.304    -932.194     311.271
  C      743.857    -931.435     313.547
  O      742.495    -930.925     313.360
  C      743.986    -931.808     315.037
  O      744.670    -930.817     315.809
  C      742.542    -932.111     315.431
  O      742.328    -932.062     316.837
  C      741.757    -931.126     314.600
  N      736.866    -929.743     314.436
  C      737.939    -929.024     314.886
  N      737.699    -927.773     315.346
  N      739.172    -929.470     314.863
  C      739.256    -930.767     314.438
  C      738.233    -931.592     313.985
  C      736.887    -931.037     313.947
  O      735.906    -931.627     313.542
  N      738.732    -932.839     313.628
  C      740.005    -932.776     313.864
  N      740.386    -931.516     314.338
  O      746.046    -934.037     310.556
  O      745.236    -932.290     308.932
  H      741.366    -932.164     316.992
  H      744.987    -933.138     308.551
  H      735.918    -929.323     314.423
  H      740.710    -933.582     313.701
  H      741.698    -930.139     315.094
  H      742.325    -933.131     315.116
  H      736.779    -927.423     315.514
  H      744.613    -932.720     315.156
  H      738.451    -927.345     315.875
  H      744.508    -930.616     313.292
  H      745.013    -933.155     312.919
  H      743.269    -933.332     312.671
  P      746.236    -930.807     316.237
  C      746.183    -931.473     318.740
  O      746.462    -931.882     317.377
  O      746.430    -929.417     316.993
  O      747.185    -930.917     315.070
  H      747.067    -928.863     316.521
  H      746.618    -932.183     319.416
  H      745.118    -931.433     318.883
  H      746.628    -930.497     318.899
  H      747.735    -929.745     310.621
  H      745.994    -929.690     310.483
  H      746.955    -930.328     309.170

 3  4  5  6  7  8  9  10  11  12  23  26  30  31 0
 6-311+G(2d,p)
 ****
 33  35  36  37  38 0
 6-311+G(2d,p)
 ****
 1  2  13  14  15  16  17  18  19  20  21  22  24  25 0
 3-21G
 ****
 27  28  29  32  34  39  40  41  42  43  44  45  46  47  48  49 0
 3-21G
 ****


