%nproc=1
%NoSave
%Mem=1900MB
#P OB98/GEN NMR

erre ene a

0 1
  C     -123.887    -106.147    -387.628
  O     -124.327    -107.427    -387.222
  H     -124.243    -105.416    -386.895
  H     -124.302    -105.886    -388.602
  H     -122.795    -106.113    -387.661
  P     -124.115    -108.675    -388.220
  C     -125.281    -109.490    -390.356
  O     -125.342    -108.577    -389.272
  C     -126.196    -109.057    -391.511
  O     -127.578    -109.076    -391.065
  C     -125.902    -107.643    -392.035
  O     -125.858    -107.670    -393.462
  C     -127.088    -106.822    -391.550
  O     -127.306    -105.663    -392.353
  C     -128.205    -107.874    -391.567
  N     -129.362    -107.491    -390.765
  C     -130.300    -106.655    -391.380
  O     -130.105    -106.242    -392.523
  N     -131.412    -106.272    -390.672
  C     -131.553    -106.639    -389.433
  N     -132.667    -106.218    -388.783
  C     -130.556    -107.496    -388.725
  C     -129.507    -107.885    -389.454
  O     -123.972    -109.992    -387.545
  O     -122.850    -108.265    -389.112
  H     -128.055    -105.147    -391.947
  H     -122.458    -109.078    -389.516
  H     -130.720    -107.771    -387.698
  H     -128.740    -108.511    -389.021
  H     -128.539    -108.073    -392.597
  H     -126.904    -106.490    -390.514
  H     -124.958    -107.237    -391.667
  H     -126.128    -109.803    -392.311
  H     -133.319    -105.635    -389.303
  H     -125.573    -110.488    -389.992
  H     -132.877    -106.445    -387.820
  H     -124.246    -109.529    -390.717
  P     -124.460    -107.256    -394.143
  C     -123.162    -105.056    -394.604
  O     -124.381    -105.649    -394.160
  O     -124.675    -107.643    -395.682
  O     -123.281    -107.951    -393.542
  H     -124.238    -108.498    -395.874
  H     -123.249    -103.990    -394.564
  H     -122.963    -105.360    -395.610
  H     -122.360    -105.373    -393.971

 6  7  8  9  10  11  12  13  14  15  16  26  30  31  32  33  35 0
 6-311+G(2d,p)
 ****
 37  38 0
 6-311+G(2d,p)
 ****
 1  2  3  4  5  17  18  19  20  21  22  23  24  25 0
 3-21G
 ****
 27  28  29  34  36  39  40  41  42  43  44  45  46 0
 3-21G
 ****


