%nproc=1
%NoSave
%Mem=1900MB
#P OB98/GEN NMR

erre ene a

0 1
  C     -427.363    1101.411    -241.847
  O     -427.412    1102.495    -240.924
  P     -428.642    1102.538    -239.886
  C     -429.416    1104.862    -240.746
  O     -428.945    1104.083    -239.638
  C     -429.599    1106.312    -240.347
  O     -430.617    1106.407    -239.305
  C     -428.367    1106.994    -239.756
  O     -427.463    1107.430    -240.783
  C     -428.988    1108.172    -239.031
  O     -429.251    1109.240    -239.968
  C     -430.306    1107.594    -238.505
  N     -430.848    1109.152    -233.722
  C     -430.982    1109.847    -234.893
  N     -431.343    1111.140    -234.796
  N     -430.773    1109.328    -236.087
  C     -430.478    1108.006    -236.042
  C     -430.316    1107.196    -234.929
  C     -430.480    1107.812    -233.633
  O     -430.317    1107.246    -232.553
  N     -430.021    1105.912    -235.301
  C     -430.041    1105.926    -236.619
  N     -430.277    1107.182    -237.119
  O     -427.968    1102.061    -238.513
  O     -429.808    1101.675    -240.252
  H     -429.599    1109.994    -239.446
  H     -428.645    1101.670    -237.931
  H     -431.039    1109.595    -232.837
  H     -429.863    1105.043    -237.245
  H     -431.143    1108.280    -238.644
  H     -428.334    1108.572    -238.243
  H     -431.639    1111.569    -233.930
  H     -427.873    1106.337    -239.031
  H     -431.484    1111.669    -235.644
  H     -429.965    1106.865    -241.222
  H     -430.366    1104.451    -241.094
  H     -428.686    1104.781    -241.557
  P     -426.124    1106.542    -240.969
  C     -425.202    1108.783    -241.929
  O     -425.256    1107.361    -242.029
  O     -426.644    1105.278    -241.787
  O     -425.454    1106.156    -239.695
  H     -426.065    1104.497    -241.625
  H     -425.188    1109.079    -240.857
  H     -426.047    1109.211    -242.432
  H     -424.271    1109.118    -242.390
  H     -426.499    1101.512    -242.470
  H     -428.244    1101.420    -242.455
  H     -427.310    1100.487    -241.310

 3  4  5  6  7  8  9  10  11  12  23  26  30  31  33  0
 6-311+G(2d,p)
 ****
 35  36  37  38 0
 6-311+G(2d,p)
 ****
 1  2  13  14  15  16  17  18  19  20  21  22  24  25  27  28  29 0
 3-21G
 ****
 32  34  39  40  41  42  43  44  45  46  47  48  49 0
 3-21G
 ****


