%nproc=1
%NoSave
%Mem=1900MB
#P OB98/GEN NMR

erre ene a

0 1
  C      202.609       2.846      56.502
  O      201.666       2.833      55.449
  H      203.151       1.897      56.501
  H      202.106       2.958      57.467
  H      203.329       3.658      56.362
  P      200.738       4.122      55.248
  C      198.542       2.859      55.751
  O      199.444       3.880      56.161
  C      197.150       3.136      56.306
  O      197.163       3.094      57.746
  C      196.590       4.505      55.915
  O      196.052       4.465      54.606
  C      195.531       4.684      56.992
  O      194.379       3.882      56.678
  C      196.251       4.118      58.229
  N      196.143       7.429      62.066
  C      195.133       6.644      61.544
  N      193.911       6.798      62.094
  N      195.302       5.804      60.556
  C      196.561       5.811      60.058
  C      197.640       6.554      60.483
  C      197.453       7.439      61.611
  O      198.326       8.142      62.119
  N      198.740       6.340      59.692
  C      198.337       5.438      58.816
  N      197.016       5.096      58.986
  O      200.416       4.493      53.831
  O      201.519       5.289      56.011
  H      194.007       4.240      55.849
  H      202.108       5.775      55.407
  H      195.944       8.072      62.816
  H      198.957       5.004      58.043
  H      195.559       3.639      58.930
  H      195.194       5.715      57.096
  H      193.669       7.614      62.644
  H      197.337       5.295      56.029
  H      193.147       6.270      61.692
  H      196.487       2.330      55.968
  H      198.927       1.907      56.136
  H      198.500       2.804      54.659
  P      196.612       5.431      53.449
  C      194.958       7.418      53.469
  O      196.210       6.909      53.919
  O      196.179       5.075      52.069
  O      198.194       5.422      53.653
  H      198.653       4.696      53.160
  H      194.816       8.407      53.853
  H      194.169       6.784      53.816
  H      194.948       7.446      52.399

 6  7  8  9  10  11  12  13  14  15  26  29  33  34 0
 6-311+G(2d,p)
 ****
 36  38  39  40  41 0
 6-311+G(2d,p)
 ****
 1  2  3  4  5  16  17  18  19  20  21  22  23  24  25 0
 3-21G
 ****
 27  28  30  31  32  35  37  42  43  44  45  46  47 0
 3-21G
 ****
 48  49 0
 3-21G
 ****


