%nproc=1
%NoSave
%Mem=1900MB
#P OB98/GEN NMR

erre ene a

0 1
  C     -239.942     232.829     205.745
  O     -239.589     232.253     204.501
  H     -239.103     233.423     206.107
  H     -240.166     232.046     206.477
  H     -240.809     233.485     205.618
  P     -240.676     231.290     203.818
  C     -240.792     228.745     203.407
  O     -239.974     229.841     203.802
  C     -240.154     228.012     202.216
  O     -240.093     228.924     201.097
  C     -238.730     227.515     202.495
  O     -238.538     226.265     201.824
  C     -237.863     228.581     201.840
  O     -236.566     228.091     201.510
  C     -238.723     228.961     200.637
  N     -235.312     231.560     197.877
  C     -235.504     230.233     198.073
  N     -236.464     229.627     198.805
  C     -237.307     230.538     199.334
  C     -237.236     231.916     199.229
  C     -236.176     232.433     198.467
  N     -235.950     233.775     198.299
  N     -238.265     232.502     199.949
  C     -238.936     231.496     200.475
  N     -238.382     230.285     200.147
  O     -241.211     231.747     202.504
  O     -241.761     231.134     204.985
  H     -236.671     227.276     200.969
  H     -241.337     230.953     205.846
  H     -234.797     229.578     197.574
  H     -239.820     231.585     201.109
  H     -238.624     228.264     199.801
  H     -237.737     229.429     202.517
  H     -238.513     227.408     203.559
  H     -240.816     227.188     201.925
  H     -241.791     229.104     203.124
  H     -235.163     234.058     197.728
  H     -236.581     234.442     198.715
  H     -240.895     228.068     204.263
  P     -238.021     225.007     202.666
  C     -235.765     224.015     203.453
  O     -236.425     225.125     202.858
  O     -238.499     223.672     202.198
  O     -238.571     225.315     204.148
  H     -238.912     224.491     204.544
  H     -234.717     224.219     203.523
  H     -235.920     223.144     202.851
  H     -236.162     223.847     204.432

 6  7  8  9  10  11  12  13  14  15  25  28  32  33  34  35 0
 6-311+G(2d,p)
 ****
 36  39  40 0
 6-311+G(2d,p)
 ****
 1  2  3  4  5  16  17  18  19  20  21  22  23  24 0
 3-21G
 ****
 26  27  29  30  31  37  38  41  42  43  44  45  46  47 0
 3-21G
 ****
 48 0
 3-21G
 ****


