%nproc=1
%NoSave
%Mem=1900MB
#P OB98/GEN NMR

erre ene a

0 1
  C      262.597     277.796     282.901
  O      263.976     277.480     282.819
  H      262.494     278.847     283.183
  H      262.112     277.175     283.657
  H      262.119     277.641     281.929
  P      264.341     275.943     282.522
  C      265.252     275.698     284.958
  O      264.318     275.266     283.981
  C      265.017     274.966     286.270
  O      263.767     275.372     286.872
  C      264.920     273.447     286.138
  O      266.188     272.814     285.982
  C      264.282     273.103     287.472
  O      265.260     273.212     288.522
  C      263.217     274.225     287.575
  N      261.923     273.839     287.005
  C      260.947     273.393     287.909
  O      261.185     273.332     289.111
  N      259.730     272.991     287.413
  C      259.493     273.055     286.136
  N      258.264     272.641     285.708
  C      260.482     273.524     285.155
  C      261.665     273.897     285.648
  O      265.904     275.999     282.183
  O      263.504     275.258     281.492
  H      265.929     272.526     288.354
  H      266.269     275.077     282.127
  H      260.247     273.547     284.099
  H      262.445     274.256     284.989
  H      263.070     274.517     288.622
  H      263.881     272.087     287.512
  H      264.240     273.157     285.329
  H      265.821     275.249     286.965
  H      257.632     272.264     286.396
  H      265.115     276.785     285.103
  H      258.042     272.506     284.733
  H      266.269     275.523     284.611
  P      266.300     271.668     284.858
  C      266.037     269.729     286.580
  O      265.524     270.388     285.426
  O      267.840     271.234     284.941
  O      265.910     272.100     283.480
  H      268.180     270.989     284.061
  H      265.407     268.900     286.827
  H      266.062     270.415     287.401
  H      267.027     269.377     286.379

 6  7  8  9  10  11  12  13  14  15  16  26  30  31  32  33  35 0
 6-311+G(2d,p)
 ****
 37  38 0
 6-311+G(2d,p)
 ****
 1  2  3  4  5  17  18  19  20  21  22  23  24  25 0
 3-21G
 ****
 27  28  29  34  36  39  40  41  42  43  44  45  46 0
 3-21G
 ****


