%nproc=1
%NoSave
%Mem=1900MB
#P OB98/GEN NMR

erre ene a

0 1
  C       22.650     195.525    -643.419
  O       23.857     196.173    -642.990
  P       24.963     196.511    -644.099
  C       24.713     199.098    -644.260
  O       25.504     197.996    -643.825
  C       24.862     200.276    -643.288
  O       24.136     200.044    -642.057
  C       26.306     200.551    -642.879
  O       26.989     201.336    -643.851
  C       26.099     201.356    -641.603
  O       25.787     202.727    -641.949
  C       24.877     200.669    -640.978
  N       27.085     199.913    -636.485
  C       26.876     201.083    -637.189
  N       27.307     202.218    -636.610
  N       26.290     201.135    -638.363
  C       25.890     199.925    -638.814
  C       26.036     198.692    -638.214
  C       26.693     198.648    -636.920
  O       26.914     197.637    -636.263
  N       25.505     197.692    -638.978
  C       25.018     198.313    -640.037
  N       25.245     199.669    -639.988
  O       24.087     196.693    -645.429
  O       26.010     195.465    -644.266
  H       26.632     203.141    -642.224
  H       24.623     196.470    -646.213
  H       27.540     199.929    -635.590
  H       24.504     197.831    -640.851
  H       24.206     201.386    -640.484
  H       26.996     201.389    -640.980
  H       27.725     202.255    -635.684
  H       26.839     199.620    -642.650
  H       27.143     203.094    -637.094
  H       24.451     201.173    -643.778
  H       23.662     198.808    -644.329
  H       25.018     199.377    -645.275
  P       28.577     201.495    -643.701
  C       29.363     200.147    -645.775
  O       29.170     201.424    -645.183
  O       29.012     200.111    -643.038
  O       29.010     202.666    -642.877
  H       29.793     200.249    -642.463
  H       29.619     200.292    -646.830
  H       28.464     199.545    -645.706
  H       30.197     199.635    -645.279
  H       22.012     195.365    -642.575
  H       22.891     194.584    -643.868
  H       22.148     196.143    -644.134

 3  4  5  6  7  8  9  10  11  12  23  26  30  31 0
 6-311+G(2d,p)
 ****
 33  35  36  37  38 0
 6-311+G(2d,p)
 ****
 1  2  13  14  15  16  17  18  19  20  21  22  24  25 0
 3-21G
 ****
 27  28  29  32  34  39  40  41  42  43  44  45  46  47  48  49 0
 3-21G
 ****


