%nproc=1
%NoSave
%Mem=1900MB
#P OB98/GEN NMR

erre ene a

0 1
  C      -66.199     384.285     -47.539
  O      -67.344     384.417     -48.361
  H      -65.834     385.284     -47.284
  H      -65.406     383.745     -48.065
  H      -66.454     383.760     -46.613
  P      -68.049     383.087     -48.911
  C      -69.614     383.131     -46.851
  O      -68.700     382.366     -47.630
  C      -70.888     382.329     -46.587
  O      -70.578     381.107     -45.893
  C      -71.923     383.062     -45.734
  O      -72.678     383.964     -46.526
  C      -72.750     381.887     -45.233
  O      -73.628     381.430     -46.288
  C      -71.667     380.832     -44.961
  N      -72.564     379.699     -40.089
  C      -73.416     379.673     -41.177
  N      -74.698     379.324     -40.926
  N      -73.051     379.971     -42.400
  C      -71.758     380.370     -42.488
  C      -70.822     380.455     -41.479
  C      -71.222     380.056     -40.146
  O      -70.486     380.043     -39.157
  N      -69.637     380.990     -41.936
  C      -69.846     381.174     -43.225
  N      -71.121     380.824     -43.611
  O      -67.194     382.184     -49.746
  O      -69.327     383.620     -49.718
  H      -74.170     380.708     -45.916
  H      -69.118     383.752     -50.662
  H      -72.903     379.465     -39.172
  H      -69.112     381.559     -43.928
  H      -72.021     379.812     -45.162
  H      -73.381     382.145     -44.378
  H      -75.075     379.227     -39.990
  H      -71.457     383.559     -44.875
  H      -75.352     379.357     -41.704
  H      -71.313     382.046     -47.563
  H      -69.841     384.045     -47.413
  H      -69.155     383.418     -45.899
  P      -73.525     385.160     -45.864
  C      -71.801     386.977     -46.544
  O      -72.437     386.287     -45.481
  O      -74.417     384.754     -44.744
  O      -74.279     385.843     -47.095
  H      -75.133     385.389     -47.319
  H      -71.110     387.689     -46.144
  H      -72.538     387.485     -47.130
  H      -71.276     386.277     -47.160

 6  7  8  9  10  11  12  13  14  15  26  29  33  34 0
 6-311+G(2d,p)
 ****
 36  38  39  40  41 0
 6-311+G(2d,p)
 ****
 1  2  3  4  5  16  17  18  19  20  21  22  23  24  25 0
 3-21G
 ****
 27  28  30  31  32  35  37  42  43  44  45  46  47 0
 3-21G
 ****
 48  49 0
 3-21G
 ****


