%nproc=1
%NoSave
%Mem=1900MB
#P OB98/GEN NMR

erre ene a

0 1
  C      -96.163     147.888     514.391
  O      -96.084     146.574     513.878
  H      -95.321     148.468     514.004
  H      -96.110     147.882     515.484
  H      -97.093     148.368     514.066
  P      -97.146     145.488     514.386
  C      -97.422     144.025     516.504
  O      -96.707     145.082     515.874
  C      -96.472     143.135     517.322
  O      -95.500     142.532     516.421
  C      -95.687     143.901     518.400
  O      -95.424     142.982     519.475
  C      -94.401     144.229     517.662
  O      -93.385     144.640     518.543
  C      -94.183     142.920     516.887
  N      -93.234     143.060     515.797
  C      -91.951     142.554     516.017
  O      -91.669     142.038     517.100
  N      -91.010     142.682     515.026
  C      -91.309     143.318     513.936
  N      -90.320     143.424     512.996
  C      -92.631     143.921     513.681
  C      -93.538     143.755     514.639
  O      -97.387     144.331     513.469
  O      -98.483     146.336     514.621
  H      -93.268     143.983     519.273
  H      -99.117     146.158     513.898
  H      -92.818     144.461     512.768
  H      -94.542     144.161     514.544
  H      -93.832     142.124     517.558
  H      -94.559     145.056     516.963
  H      -96.212     144.777     518.778
  H      -97.052     142.317     517.756
  H      -89.425     143.000     513.218
  H      -97.898     143.431     515.716
  H      -90.429     143.907     512.117
  H      -98.200     144.436     517.159
  P      -96.121     143.114     520.912
  C      -95.728     144.340     523.152
  O      -95.325     144.192     521.798
  O      -96.333     141.799     521.609
  O      -97.528     143.825     520.638
  H      -98.183     143.516     521.297
  H      -95.122     145.084     523.625
  H      -95.612     143.407     523.663
  H      -96.754     144.641     523.188

 6  7  8  9  10  11  12  13  14  15  16  26  30  31  32  33  35 0
 6-311+G(2d,p)
 ****
 37  38 0
 6-311+G(2d,p)
 ****
 1  2  3  4  5  17  18  19  20  21  22  23  24  25 0
 3-21G
 ****
 27  28  29  34  36  39  40  41  42  43  44  45  46 0
 3-21G
 ****


