%nproc=1
%NoSave
%Mem=1900MB
#P OB98/GEN NMR

erre ene a

0 1
  C      -82.239    -155.262     -13.129
  O      -82.006    -156.040     -14.292
  P      -81.119    -157.373     -14.220
  C      -79.026    -155.883     -14.311
  O      -79.695    -157.010     -14.865
  C      -77.697    -155.640     -15.026
  O      -77.072    -154.464     -14.458
  C      -76.714    -156.795     -14.886
  O      -75.972    -156.919     -16.104
  C      -75.761    -156.348     -13.792
  O      -74.478    -156.983     -13.925
  C      -75.757    -154.829     -13.997
  N      -72.413    -154.107     -10.169
  C      -72.369    -154.898     -11.262
  N      -73.303    -155.061     -12.224
  C      -74.352    -154.251     -12.003
  C      -74.537    -153.387     -10.933
  C      -73.506    -153.331      -9.982
  N      -73.548    -152.513      -8.873
  N      -75.756    -152.743     -11.032
  C      -76.284    -153.196     -12.148
  N      -75.469    -154.102     -12.777
  O      -81.763    -158.591     -14.785
  O      -80.779    -157.547     -12.668
  H      -74.610    -157.938     -13.748
  H      -80.800    -158.490     -12.419
  H      -71.461    -155.485     -11.379
  H      -77.250    -152.914     -12.538
  H      -75.032    -154.527     -14.761
  H      -76.172    -156.622     -12.814
  H      -77.203    -157.746     -14.649
  H      -77.903    -155.426     -16.082
  H      -78.834    -156.082     -13.253
  H      -72.714    -152.448      -8.312
  H      -74.277    -151.812      -8.825
  H      -79.673    -155.003     -14.387
  P      -75.948    -158.388     -16.766
  C      -73.732    -158.781     -15.456
  O      -74.415    -158.845     -16.689
  O      -76.599    -158.407     -18.110
  O      -76.702    -159.247     -15.644
  H      -76.623    -158.828     -14.757
  H      -72.697    -159.093     -15.614
  H      -74.192    -159.460     -14.734
  H      -73.739    -157.760     -15.066
  H      -82.848    -154.419     -13.380
  H      -81.304    -154.922     -12.734
  H      -82.740    -155.858     -12.395

 3  4  5  6  7  8  9  10  11  12  22  25  29  30  31  32 0
 6-311+G(2d,p)
 ****
 33  36  37 0
 6-311+G(2d,p)
 ****
 1  2  13  14  15  16  17  18  19  20  21  23  24  26 0
 3-21G
 ****
 27  28  34  35  38  39  40  41  42  43  44  45  46  47  48 0
 3-21G
 ****


