%nproc=1
%NoSave
%Mem=1900MB
#P OB98/GEN NMR

erre ene a

0 1
  C       99.311    -645.007     217.452
  O      100.111    -646.134     217.171
  H       99.110    -644.977     218.529
  H       98.356    -645.067     216.921
  H       99.834    -644.087     217.173
  P      100.452    -646.466     215.643
  C      103.011    -646.116     215.729
  O      101.949    -647.050     215.623
  C      104.119    -646.659     216.645
  O      103.626    -646.705     218.017
  C      104.576    -648.088     216.285
  O      105.955    -648.204     216.656
  C      103.697    -648.926     217.201
  O      104.162    -650.250     217.283
  C      103.735    -648.073     218.471
  N      102.679    -648.427     219.405
  C      102.869    -649.605     220.137
  O      103.874    -650.291     219.960
  N      101.893    -649.989     221.025
  C      100.802    -649.306     221.129
  N       99.875    -649.752     222.012
  C      100.537    -648.084     220.330
  C      101.514    -647.702     219.505
  O      100.194    -645.364     214.666
  O       99.557    -647.757     215.316
  H      104.959    -650.306     217.865
  H       98.794    -647.497     214.771
  H       99.605    -647.553     220.440
  H      101.416    -646.824     218.876
  H      104.702    -648.177     218.985
  H      102.676    -648.978     216.809
  H      104.455    -648.322     215.219
  H      104.964    -645.962     216.635
  H      100.089    -650.599     222.531
  H      102.598    -645.199     216.161
  H       98.976    -649.308     222.154
  H      103.428    -645.890     214.747
  P      106.976    -649.216     215.944
  C      108.920    -647.518     215.836
  O      108.481    -648.792     216.299
  O      106.725    -649.396     214.477
  O      106.786    -650.612     216.715
  H      106.955    -651.344     216.094
  H      109.934    -647.359     216.138
  H      108.299    -646.753     216.254
  H      108.856    -647.485     214.768

 6  7  8  9  10  11  12  13  14  15  16  26  30  31  32  33  35 0
 6-311+G(2d,p)
 ****
 37  38 0
 6-311+G(2d,p)
 ****
 1  2  3  4  5  17  18  19  20  21  22  23  24  25 0
 3-21G
 ****
 27  28  29  34  36  39  40  41  42  43  44  45  46 0
 3-21G
 ****


