%nproc=1
%NoSave
%Mem=1900MB
#P OB98/GEN NMR

erre ene a

0 1
  C      966.633     337.481     -93.198
  O      965.261     337.473     -93.597
  P      964.569     336.050     -93.843
  C      962.290     336.108     -92.547
  O      963.651     335.726     -92.570
  C      961.690     335.942     -91.137
  O      961.468     334.538     -90.898
  C      962.580     336.408     -89.993
  O      961.773     336.599     -88.828
  C      963.483     335.209     -89.790
  O      964.131     335.240     -88.513
  C      962.518     334.024     -90.027
  N      963.166     332.846     -90.638
  C      963.815     331.941     -89.807
  O      963.878     332.046     -88.584
  N      964.425     330.890     -90.425
  C      964.431     330.633     -91.766
  O      965.075     329.724     -92.278
  C      963.614     331.545     -92.584
  C      963.039     332.595     -91.998
  O      965.785     335.007     -93.725
  O      963.859     335.938     -95.154
  H      964.607     334.385     -88.431
  H      966.032     334.683     -94.613
  H      964.956     330.255     -89.846
  H      963.536     331.337     -93.646
  H      962.450     333.293     -92.595
  H      962.061     333.695     -89.082
  H      964.269     335.217     -90.548
  H      963.149     337.323     -90.201
  H      960.721     336.441     -91.099
  H      961.730     335.510     -93.267
  H      962.193     337.153     -92.863
  P      960.817     337.887     -88.771
  C      958.898     336.224     -88.369
  O      959.339     337.368     -89.076
  O      961.279     339.070     -89.560
  O      960.752     338.212     -87.198
  H      960.466     339.133     -87.074
  H      957.819     336.274     -88.244
  H      959.372     336.164     -87.381
  H      959.151     335.327     -88.943
  H      966.962     338.491     -93.071
  H      967.226     337.005     -93.951
  H      966.739     336.952     -92.274

 3  4  5  6  7  8  9  10  11  12  13  23  28  29  30  31  32 0
 6-311+G(2d,p)
 ****
 33  34 0
 6-311+G(2d,p)
 ****
 1  2  14  15  16  17  18  19  20  21  22  24  25  26  27 0
 3-21G
 ****
 35  36  37  38  39  40  41  42  43  44  45 0
 3-21G
 ****


