%nproc=1
%NoSave
%Mem=1900MB
#P OB98/GEN NMR

erre ene a

0 1
  C      508.044     445.853    -880.918
  O      507.039     446.415    -880.076
  P      507.426     447.721    -879.228
  C      505.860     449.632    -878.427
  O      506.273     448.789    -879.503
  C      505.033     450.810    -878.961
  O      505.823     451.610    -879.876
  C      503.795     450.398    -879.765
  O      502.693     450.077    -878.913
  C      503.511     451.680    -880.522
  O      502.849     452.633    -879.677
  C      504.936     452.169    -880.854
  N      505.993     453.831    -885.587
  C      505.498     454.475    -884.497
  N      505.221     453.957    -883.283
  C      505.485     452.628    -883.247
  C      505.964     451.851    -884.299
  C      506.227     452.506    -885.512
  N      506.763     451.860    -886.603
  N      506.111     450.534    -883.891
  C      505.745     450.527    -882.617
  N      505.371     451.777    -882.182
  O      508.690     448.318    -880.020
  O      507.747     447.460    -877.786
  H      501.971     452.252    -879.443
  H      509.219     448.864    -879.434
  H      505.280     455.531    -884.630
  H      505.738     449.659    -881.971
  H      505.017     453.268    -880.799
  H      502.857     451.524    -881.393
  H      504.025     449.595    -880.464
  H      504.749     451.431    -878.108
  H      506.742     450.023    -877.918
  H      507.093     452.432    -887.367
  H      507.124     450.932    -886.487
  H      505.272     449.040    -877.726
  P      501.644     449.012    -879.469
  C      499.759     447.589    -878.372
  O      500.837     448.494    -878.189
  O      502.564     447.759    -879.874
  O      500.815     449.510    -880.627
  H      502.130     447.224    -880.573
  H      499.539     447.107    -877.419
  H      500.034     446.797    -879.094
  H      498.872     448.121    -878.729
  H      507.650     444.994    -881.419
  H      508.886     445.565    -880.324
  H      508.350     446.579    -881.642

 3  4  5  6  7  8  9  10  11  12  22  25  29  30  31  32 0
 6-311+G(2d,p)
 ****
 33  36  37 0
 6-311+G(2d,p)
 ****
 1  2  13  14  15  16  17  18  19  20  21  23  24  26 0
 3-21G
 ****
 27  28  34  35  38  39  40  41  42  43  44  45  46  47  48 0
 3-21G
 ****


