%nproc=1
%NoSave
%Mem=1900MB
#P OB98/GEN NMR

erre ene a

0 1
  C     -165.152      45.112     312.594
  O     -164.191      44.182     312.150
  P     -163.027      44.631     311.140
  C     -160.899      44.125     312.500
  O     -161.805      45.132     312.054
  C     -160.295      44.527     313.840
  O     -161.321      44.679     314.856
  C     -159.343      43.490     314.428
  O     -158.140      43.250     313.738
  C     -159.234      43.971     315.865
  O     -158.301      45.044     315.988
  C     -160.676      44.471     316.138
  N     -161.431      43.544     316.979
  C     -161.440      43.832     318.338
  O     -160.865      44.797     318.836
  N     -162.118      42.942     319.130
  C     -162.734      41.802     318.713
  O     -163.287      41.024     319.483
  C     -162.672      41.541     317.266
  C     -162.034      42.411     316.474
  O     -163.443      45.592     310.078
  O     -162.477      43.236     310.573
  H     -158.250      45.284     316.933
  H     -162.123      42.633     311.251
  H     -162.128      43.127     320.124
  H     -163.160      40.646     316.896
  H     -161.975      42.239     315.403
  H     -160.653      45.449     316.638
  H     -158.898      43.174     316.540
  H     -159.867      42.527     314.454
  H     -159.810      45.500     313.726
  H     -160.098      44.019     311.762
  H     -161.427      43.165     312.570
  P     -157.713      41.809     313.176
  C     -157.589      42.083     310.601
  O     -158.338      41.637     311.709
  O     -157.838      40.660     314.121
  O     -156.156      42.044     312.847
  H     -155.678      41.204     312.973
  H     -158.182      41.926     309.694
  H     -156.659      41.518     310.512
  H     -157.371      43.152     310.694
  H     -165.839      44.627     313.256
  H     -165.684      45.504     311.753
  H     -164.663      45.911     313.111

 3  4  5  6  7  8  9  10  11  12  13  23  28  29  30  31  32 0
 6-311+G(2d,p)
 ****
 33  34 0
 6-311+G(2d,p)
 ****
 1  2  14  15  16  17  18  19  20  21  22  24  25  26  27 0
 3-21G
 ****
 35  36  37  38  39  40  41  42  43  44  45 0
 3-21G
 ****


