%nproc=1
%NoSave
%Mem=1900MB
#P OB98/GEN NMR

erre ene a

0 1
  C      114.320     442.807     175.837
  O      113.695     443.595     174.838
  P      114.085     443.433     173.283
  C      116.346     442.887     172.158
  O      115.686     443.513     173.250
  C      117.859     442.909     172.374
  O      118.185     442.180     173.581
  C      118.668     442.254     171.266
  O      118.759     443.111     170.136
  C      119.985     441.988     171.989
  O      120.779     443.188     172.060
  C      119.493     441.597     173.399
  N      119.480     440.147     173.618
  C      120.073     439.688     174.796
  O      120.575     440.462     175.598
  N      120.060     438.329     175.041
  C      119.524     437.518     174.186
  N      119.486     436.189     174.519
  C      118.936     437.957     172.905
  C      118.938     439.278     172.694
  O      113.403     444.379     172.360
  O      113.803     441.894     172.958
  H      120.999     443.437     171.143
  H      112.879     441.711     172.665
  H      118.508     437.234     172.221
  H      118.507     439.689     171.786
  H      120.140     442.057     174.159
  H      120.595     441.209     171.509
  H      118.211     441.297     170.961
  H      118.168     443.947     172.522
  H      119.737     435.955     175.482
  H      116.115     443.439     171.240
  H      118.844     435.551     174.066
  H      115.974     441.857     172.050
  P      118.700     442.432     168.686
  C      120.368     440.653     167.798
  O      120.192     441.936     168.363
  O      118.469     443.677     167.703
  O      117.635     441.393     168.540
  H      117.528     443.731     167.436
  H      121.396     440.568     167.418
  H      119.677     440.509     166.956
  H      120.206     439.878     168.542
  H      113.923     443.066     176.796
  H      115.374     442.988     175.827
  H      114.134     441.771     175.642

 3  4  5  6  7  8  9  10  11  12  13  23  27  28  29  30  32 0
 6-311+G(2d,p)
 ****
 34  35 0
 6-311+G(2d,p)
 ****
 1  2  14  15  16  17  18  19  20  21  22  24  25  26 0
 3-21G
 ****
 31  33  36  37  38  39  40  41  42  43  44  45  46 0
 3-21G
 ****


