%nproc=1
%NoSave
%Mem=1900MB
#P OB98/GEN NMR

erre ene a

0 1
  C      -47.129       9.781     131.765
  O      -45.945       9.564     132.504
  H      -47.906       9.114     132.149
  H      -46.964       9.553     130.710
  H      -47.470      10.814     131.874
  P      -44.680      10.510     132.234
  C      -43.722       8.700     130.670
  O      -43.475       9.555     131.779
  C      -42.554       7.735     130.488
  O      -42.823       6.824     129.398
  C      -41.236       8.420     130.142
  O      -40.671       9.031     131.284
  C      -40.453       7.244     129.578
  O      -39.923       6.424     130.632
  C      -41.551       6.484     128.798
  N      -41.546       6.788     127.366
  C      -41.309       5.715     126.513
  O      -41.109       4.569     126.910
  N      -41.264       6.016     125.177
  C      -41.339       7.267     124.638
  O      -41.075       7.515     123.466
  C      -41.663       8.349     125.579
  C      -41.736       8.068     126.882
  O      -44.346      11.472     133.324
  O      -45.063      11.272     130.877
  H      -45.376      12.171     131.091
  H      -39.259       6.968     131.099
  H      -41.045       5.252     124.552
  H      -41.796       9.348     125.183
  H      -41.944       8.855     127.599
  H      -41.425       5.400     128.917
  H      -39.607       7.564     128.966
  H      -41.393       9.155     129.344
  H      -42.454       7.142     131.406
  H      -43.828       9.318     129.772
  H      -44.656       8.154     130.839
  P      -40.212      10.563     131.263
  C      -38.178      10.038     129.794
  O      -38.629      10.605     131.017
  O      -40.681      11.379     132.421
  O      -40.805      11.132     129.887
  H      -41.330      11.935     130.073
  H      -37.113      10.120     129.734
  H      -38.622      10.561     128.973
  H      -38.460       9.006     129.754

 6  7  8  9  10  11  12  13  14  15  16  27  31  32  33  34  35 0
 6-311+G(2d,p)
 ****
 36  37 0
 6-311+G(2d,p)
 ****
 1  2  3  4  5  17  18  19  20  21  22  23  24  25 0
 3-21G
 ****
 26  28  29  30  38  39  40  41  42  43  44  45 0
 3-21G
 ****


