%nproc=1
%NoSave
%Mem=1900MB
#P OB98/GEN NMR

erre ene a

0 1
  C      141.602    -112.318      48.884
  O      142.332    -111.144      48.592
  H      141.235    -112.743      47.947
  H      140.744    -112.091      49.525
  H      142.246    -113.054      49.372
  P      142.882    -110.264      49.818
  C      141.400    -108.245      49.151
  O      142.719    -108.745      49.315
  C      141.301    -107.433      47.861
  O      139.980    -106.872      47.702
  C      142.243    -106.235      47.783
  O      143.596    -106.595      47.547
  C      141.626    -105.489      46.610
  O      141.982    -106.147      45.382
  C      140.115    -105.659      46.909
  N      139.543    -104.517      47.622
  C      139.569    -103.285      46.957
  O      140.054    -103.194      45.830
  N      139.079    -102.174      47.600
  C      138.619    -102.279      48.809
  N      138.189    -101.141      49.417
  C      138.556    -103.560      49.540
  C      139.036    -104.624      48.899
  O      144.238    -110.625      50.336
  O      141.730    -110.361      50.926
  H      141.531    -105.672      44.662
  H      142.029    -109.841      51.711
  H      138.173    -103.591      50.550
  H      139.038    -105.599      49.378
  H      139.551    -105.815      45.983
  H      141.959    -104.452      46.534
  H      142.155    -105.611      48.679
  H      141.458    -108.126      47.023
  H      138.287    -100.276      48.903
  H      141.157    -107.629      50.022
  H      138.085    -101.088      50.425
  H      140.688    -109.074      49.091
  P      144.737    -105.760      48.308
  C      144.759    -103.763      46.630
  O      145.463    -104.856      47.196
  O      145.823    -106.876      48.656
  O      144.288    -104.994      49.513
  H      145.687    -107.232      49.558
  H      145.382    -103.271      45.913
  H      144.491    -103.073      47.403
  H      143.873    -104.121      46.148

 6  7  8  9  10  11  12  13  14  15  16  26  30  31  32  33  35 0
 6-311+G(2d,p)
 ****
 37  38 0
 6-311+G(2d,p)
 ****
 1  2  3  4  5  17  18  19  20  21  22  23  24  25 0
 3-21G
 ****
 27  28  29  34  36  39  40  41  42  43  44  45  46 0
 3-21G
 ****


