%nproc=1
%NoSave
%Mem=1900MB
#P OB98/GEN NMR

erre ene a

0 1
  C     -106.510     146.886    -189.808
  O     -107.618     147.216    -190.622
  H     -106.662     145.884    -189.396
  H     -106.423     147.596    -188.977
  H     -105.593     146.889    -190.403
  P     -107.606     148.674    -191.296
  C     -109.088     149.791    -193.101
  O     -108.690     148.579    -192.475
  C     -110.290     149.553    -194.013
  O     -109.923     148.693    -195.107
  C     -111.479     148.889    -193.327
  O     -112.263     149.856    -192.644
  C     -112.219     148.315    -194.524
  O     -113.005     149.351    -195.147
  C     -111.076     147.889    -195.461
  N     -110.439     143.563    -198.151
  C     -110.988     144.751    -198.485
  N     -111.174     145.838    -197.702
  C     -110.716     145.618    -196.461
  C     -110.137     144.453    -195.979
  C     -109.995     143.389    -196.884
  N     -109.437     142.177    -196.542
  N     -109.792     144.590    -194.648
  C     -110.105     145.837    -194.353
  N     -110.703     146.489    -195.402
  O     -106.264     149.200    -191.676
  O     -108.379     149.530    -190.182
  H     -113.816     149.454    -194.614
  H     -109.130     149.024    -189.824
  H     -111.326     144.841    -199.513
  H     -109.903     146.320    -193.402
  H     -111.314     148.104    -196.515
  H     -112.911     147.514    -194.250
  H     -111.165     148.067    -192.672
  H     -110.582     150.521    -194.444
  H     -108.257     150.208    -193.683
  H     -109.554     141.416    -197.193
  H     -109.230     142.011    -195.570
  H     -109.346     150.504    -192.310
  P     -113.102     149.466    -191.334
  C     -114.208     150.835    -189.457
  O     -113.260     150.840    -190.521
  O     -112.548     148.317    -190.562
  O     -114.581     149.195    -191.877
  H     -115.095     148.700    -191.209
  H     -114.226     151.798    -188.991
  H     -113.931     150.095    -188.736
  H     -115.179     150.608    -189.845

 6  7  8  9  10  11  12  13  14  15  25  28  32  33  34  35 0
 6-311+G(2d,p)
 ****
 36  39  40 0
 6-311+G(2d,p)
 ****
 1  2  3  4  5  16  17  18  19  20  21  22  23  24 0
 3-21G
 ****
 26  27  29  30  31  37  38  41  42  43  44  45  46  47 0
 3-21G
 ****
 48 0
 3-21G
 ****


