%nproc=1
%NoSave
%Mem=1900MB
#P OB98/GEN NMR

erre ene a

0 1
  C      -29.099     139.577      99.340
  O      -28.815     140.964      99.317
  P      -29.414     141.858     100.511
  C      -28.832     144.161     101.577
  O      -28.544     143.202     100.566
  C      -27.577     144.962     101.914
  O      -26.585     144.103     102.509
  C      -26.891     145.602     100.714
  O      -27.597     146.752     100.272
  C      -25.513     145.886     101.299
  O      -25.556     147.071     102.111
  C      -25.278     144.648     102.181
  N      -20.586     142.676     101.631
  C      -21.043     143.729     102.344
  N      -22.303     144.205     102.423
  C      -23.136     143.471     101.667
  C      -22.811     142.386     100.871
  C      -21.467     141.985     100.870
  N      -21.003     140.913     100.136
  N      -23.927     141.903     100.222
  C      -24.912     142.675     100.629
  N      -24.488     143.629     101.515
  O      -28.958     141.067     101.822
  O      -30.897     142.058     100.463
  H      -25.639     147.835     101.507
  H      -29.630     141.144     102.528
  H      -20.299     144.258     102.931
  H      -25.944     142.582     100.318
  H      -24.776     144.892     103.123
  H      -24.744     146.041     100.535
  H      -26.808     144.881      99.892
  H      -27.852     145.730     102.649
  H      -29.177     143.649     102.480
  H      -20.005     140.786     100.077
  H      -21.631     140.491      99.464
  H      -29.633     144.818     101.224
  P      -26.939     147.608      99.086
  C      -27.910     149.400      97.523
  O      -28.200     148.306      98.373
  O      -26.537     146.465      98.045
  O      -25.843     148.524      99.507
  H      -27.268     145.843      97.885
  H      -28.841     149.743      97.066
  H      -27.217     149.096      96.734
  H      -27.478     150.221      98.103
  H      -28.643     139.106      98.494
  H      -30.158     139.429      99.303
  H      -28.710     139.148     100.240

 3  4  5  6  7  8  9  10  11  12  22  25  29  30  31  32 0
 6-311+G(2d,p)
 ****
 33  36  37 0
 6-311+G(2d,p)
 ****
 1  2  13  14  15  16  17  18  19  20  21  23  24  26 0
 3-21G
 ****
 27  28  34  35  38  39  40  41  42  43  44  45  46  47  48 0
 3-21G
 ****


