%nproc=1
%NoSave
%Mem=1900MB
#P OB98/GEN NMR

erre ene a

0 1
  C      -63.203    -320.556     153.857
  O      -61.995    -320.810     153.128
  P      -60.707    -319.919     153.473
  C      -58.481    -320.246     154.785
  O      -59.768    -320.762     154.465
  C      -57.490    -321.395     155.004
  O      -57.985    -322.351     155.969
  C      -57.186    -322.193     153.745
  O      -56.191    -321.563     152.946
  C      -56.632    -323.480     154.341
  O      -55.254    -323.290     154.714
  C      -57.508    -323.667     155.585
  N      -59.383    -328.291     156.420
  C      -58.189    -327.732     156.822
  N      -57.371    -328.518     157.563
  N      -57.823    -326.511     156.527
  C      -58.741    -325.841     155.799
  C      -59.964    -326.283     155.336
  C      -60.349    -327.642     155.661
  O      -61.393    -328.197     155.320
  N      -60.617    -325.314     154.624
  C      -59.804    -324.274     154.665
  N      -58.646    -324.545     155.352
  O      -61.306    -318.783     154.432
  O      -60.027    -319.332     152.277
  H      -54.809    -322.882     153.943
  H      -60.771    -317.972     154.359
  H      -59.614    -329.241     156.673
  H      -60.013    -323.307     154.220
  H      -56.949    -324.077     156.435
  H      -56.656    -324.312     153.627
  H      -57.611    -329.445     157.871
  H      -58.103    -322.402     153.176
  H      -56.504    -328.110     157.891
  H      -56.555    -320.964     155.392
  H      -58.532    -319.623     155.679
  H      -58.157    -319.584     153.976
  P      -56.627    -320.287     152.073
  C      -57.294    -317.881     152.790
  O      -56.494    -319.019     153.043
  O      -58.206    -320.490     151.914
  O      -55.947    -320.177     150.752
  H      -58.509    -320.120     151.060
  H      -57.193    -317.187     153.636
  H      -58.349    -318.159     152.687
  H      -56.954    -317.376     151.880
  H      -63.970    -321.222     153.520
  H      -63.512    -319.545     153.694
  H      -63.029    -320.711     154.901

 3  4  5  6  7  8  9  10  11  12  23  26  30  31 0
 6-311+G(2d,p)
 ****
 33  35  36  37  38 0
 6-311+G(2d,p)
 ****
 1  2  13  14  15  16  17  18  19  20  21  22  24  25 0
 3-21G
 ****
 27  28  29  32  34  39  40  41  42  43  44  45  46  47  48  49 0
 3-21G
 ****


