%nproc=1
%NoSave
%Mem=1900MB
#P OB98/GEN NMR

erre ene a

0 1
  C     2562.026    -769.135     770.887
  O     2563.061    -768.791     771.772
  H     2562.103    -770.204     770.664
  H     2562.118    -768.584     769.952
  H     2561.055    -768.951     771.339
  P     2563.207    -767.266     772.244
  C     2562.426    -767.850     774.624
  O     2562.160    -767.085     773.447
  C     2561.349    -768.893     774.872
  O     2561.369    -769.872     773.808
  C     2561.506    -769.647     776.198
  O     2560.243    -769.694     776.875
  C     2561.918    -771.044     775.762
  O     2561.589    -772.041     776.734
  C     2561.175    -771.162     774.422
  N     2561.701    -772.257     773.611
  C     2560.737    -773.146     773.104
  O     2559.533    -772.982     773.343
  N     2561.162    -774.228     772.372
  C     2562.432    -774.421     772.219
  N     2562.795    -775.528     771.500
  C     2563.465    -773.526     772.752
  C     2563.041    -772.469     773.430
  O     2563.087    -766.252     771.145
  O     2564.623    -767.194     772.997
  H     2560.629    -771.961     776.959
  H     2564.936    -766.261     773.004
  H     2564.523    -773.739     772.590
  H     2563.733    -771.746     773.858
  H     2560.089    -771.304     774.572
  H     2562.996    -771.080     775.599
  H     2562.247    -769.200     776.864
  H     2560.368    -768.393     774.809
  H     2562.036    -776.123     771.159
  H     2562.513    -767.156     775.476
  H     2563.740    -775.806     771.334
  H     2563.401    -768.349     774.478
  P     2559.711    -768.296     777.465
  C     2557.351    -767.745     776.515
  O     2558.763    -767.645     776.360
  O     2561.020    -767.375     777.475
  O     2559.101    -768.430     778.832
  H     2561.289    -767.222     778.413
  H     2556.867    -767.260     775.693
  H     2557.058    -767.274     777.430
  H     2557.067    -768.776     776.538

 6  7  8  9  10  11  12  13  14  15  16  26  30  31  32  33  35 0
 6-311+G(2d,p)
 ****
 37  38 0
 6-311+G(2d,p)
 ****
 1  2  3  4  5  17  18  19  20  21  22  23  24  25 0
 3-21G
 ****
 27  28  29  34  36  39  40  41  42  43  44  45  46 0
 3-21G
 ****


