%nproc=1
%NoSave
%Mem=1900MB
#P OB98/GEN NMR

erre ene a

0 1
  C      201.158     150.911    -403.580
  O      201.676     151.788    -404.560
  H      200.415     150.260    -404.050
  H      200.676     151.468    -402.773
  H      201.960     150.288    -403.173
  P      202.594     153.010    -404.071
  C      203.634     152.780    -406.423
  O      203.174     153.677    -405.413
  C      204.288     153.545    -407.578
  O      205.320     154.417    -407.075
  C      204.981     152.648    -408.590
  O      204.101     151.864    -409.366
  C      205.936     153.612    -409.280
  O      205.341     154.325    -410.358
  C      206.282     154.593    -408.133
  N      207.650     154.420    -407.661
  C      208.649     154.849    -408.526
  O      208.427     155.330    -409.638
  N      209.933     154.673    -408.092
  C      210.305     154.072    -406.924
  O      211.478     153.905    -406.608
  C      209.205     153.615    -406.061
  C      207.946     153.806    -406.462
  O      203.647     152.670    -403.060
  O      201.537     154.096    -403.556
  H      205.069     153.664    -411.025
  H      201.973     154.778    -402.991
  H      210.671     154.988    -408.701
  H      209.463     153.133    -405.127
  H      207.116     153.475    -405.842
  H      206.176     155.630    -408.478
  H      206.808     153.092    -409.684
  H      205.608     151.938    -408.040
  H      203.522     154.166    -408.056
  H      202.767     152.231    -406.800
  H      204.342     152.068    -405.987
  P      204.333     150.310    -409.653
  C      201.807     149.728    -409.444
  O      202.972     149.704    -410.261
  O      205.055     149.533    -408.603
  O      205.288     150.368    -410.953
  H      205.901     149.611    -410.898
  H      200.988     149.295    -409.979
  H      201.571     150.740    -409.189
  H      201.986     149.167    -408.551

 6  7  8  9  10  11  12  13  14  15  16  26  31  32  33  34  35 0
 6-311+G(2d,p)
 ****
 36  37 0
 6-311+G(2d,p)
 ****
 1  2  3  4  5  17  18  19  20  21  22  23  24  25 0
 3-21G
 ****
 27  28  29  30  38  39  40  41  42  43  44  45 0
 3-21G
 ****


