%nproc=1
%NoSave
%Mem=1900MB
#P OB98/GEN NMR

erre ene a

0 1
  C       47.400    -364.846      26.076
  O       46.074    -365.176      26.451
  H       47.402    -363.832      25.661
  H       47.779    -365.535      25.319
  H       48.053    -364.860      26.956
  P       45.766    -366.701      26.850
  C       43.404    -366.553      25.807
  O       44.163    -366.788      26.991
  C       41.907    -366.477      26.119
  O       41.442    -367.739      26.634
  C       41.556    -365.453      27.193
  O       41.729    -364.107      26.794
  C       40.188    -365.925      27.664
  O       39.111    -365.429      26.879
  C       40.303    -367.463      27.484
  N       40.391    -368.162      28.760
  C       39.181    -368.519      29.344
  O       38.083    -368.249      28.843
  N       39.266    -369.155      30.547
  C       40.414    -369.424      31.235
  O       40.422    -369.964      32.336
  C       41.664    -368.999      30.583
  C       41.600    -368.400      29.393
  O       46.507    -367.227      28.042
  O       46.055    -367.516      25.502
  H       38.321    -365.954      27.111
  H       46.158    -368.482      25.686
  H       38.395    -369.435      30.979
  H       42.604    -369.193      31.103
  H       42.507    -368.076      28.888
  H       39.421    -367.844      26.955
  H       39.996    -365.629      28.699
  H       42.243    -365.600      28.039
  H       41.367    -366.271      25.186
  H       43.585    -367.392      25.121
  H       43.743    -365.629      25.330
  P       43.019    -363.242      27.160
  C       41.606    -361.100      27.600
  O       42.674    -361.691      26.873
  O       44.347    -363.779      26.722
  O       42.983    -363.296      28.772
  H       43.913    -363.306      29.086
  H       41.497    -360.077      27.305
  H       41.818    -361.148      28.648
  H       40.699    -361.629      27.395

 6  7  8  9  10  11  12  13  14  15  16  26  31  32  33  34  35 0
 6-311+G(2d,p)
 ****
 36  37 0
 6-311+G(2d,p)
 ****
 1  2  3  4  5  17  18  19  20  21  22  23  24  25 0
 3-21G
 ****
 27  28  29  30  38  39  40  41  42  43  44  45 0
 3-21G
 ****


