%nproc=1
%NoSave
%Mem=1900MB
#P OB98/GEN NMR

erre ene a

0 1
  C       83.216     270.699     555.452
  O       84.527     271.155     555.189
  H       83.079     270.621     556.535
  H       83.073     269.709     555.011
  H       82.470     271.392     555.055
  P       84.900     271.634     553.705
  C       85.497     269.259     552.901
  O       84.633     270.375     552.742
  C       85.568     268.434     551.608
  O       84.211     268.065     551.222
  C       86.192     269.185     550.421
  O       86.843     268.207     549.596
  C       84.971     269.741     549.722
  O       85.262     270.126     548.396
  C       83.992     268.577     549.889
  N       82.602     268.970     549.675
  C       82.100     268.815     548.386
  O       82.775     268.392     547.446
  N       80.802     269.193     548.195
  C       79.993     269.767     549.133
  O       78.842     270.120     548.896
  C       80.592     269.954     550.467
  C       81.847     269.554     550.673
  O       86.237     272.268     553.544
  O       83.714     272.632     553.302
  H       86.122     270.595     548.367
  H       84.044     273.313     552.685
  H       80.420     269.076     547.270
  H       79.978     270.417     551.227
  H       82.311     269.676     551.649
  H       84.223     267.768     549.179
  H       84.596     270.626     550.247
  H       86.900     269.960     550.728
  H       86.102     267.498     551.815
  H       85.109     268.641     553.718
  H       86.503     269.604     553.168
  P       88.407     267.887     549.717
  C       88.896     269.323     547.629
  O       89.233     269.063     548.986
  O       88.793     266.520     549.272
  O       88.749     268.103     551.266
  H       89.504     267.537     551.514
  H       89.507     270.118     547.256
  H       87.866     269.605     547.565
  H       89.062     268.442     547.045

 6  7  8  9  10  11  12  13  14  15  16  26  31  32  33  34  35 0
 6-311+G(2d,p)
 ****
 36  37 0
 6-311+G(2d,p)
 ****
 1  2  3  4  5  17  18  19  20  21  22  23  24  25 0
 3-21G
 ****
 27  28  29  30  38  39  40  41  42  43  44  45 0
 3-21G
 ****


