%nproc=1
%NoSave
%Mem=1900MB
#P OB98/GEN NMR

erre ene a

0 1
  C       67.749     484.093       7.609
  O       68.336     482.785       7.728
  P       68.965     482.339       9.139
  C       71.471     483.016       8.892
  O       70.218     483.264       9.513
  C       72.520     484.059       9.319
  O       73.830     483.692       8.787
  C       72.229     485.488       8.843
  O       72.734     486.380       9.851
  C       73.065     485.594       7.581
  O       73.325     486.932       7.190
  C       74.313     484.814       8.018
  N       75.154     484.362       6.908
  C       75.771     485.331       6.119
  O       75.605     486.540       6.254
  N       76.585     484.854       5.122
  C       76.808     483.543       4.818
  O       77.527     483.186       3.890
  C       76.108     482.566       5.666
  C       75.330     483.015       6.651
  O       69.667     480.949       8.764
  O       67.974     482.137      10.242
  H       74.078     486.920       6.570
  H       69.453     480.277       9.442
  H       77.052     485.543       4.551
  H       76.262     481.514       5.459
  H       74.816     482.310       7.300
  H       74.914     485.433       8.696
  H       72.540     485.101       6.754
  H       71.161     485.673       8.673
  H       72.605     484.026      10.413
  H       71.350     483.057       7.804
  H       71.810     482.009       9.162
  P       71.685     487.259      10.688
  C       72.666     489.632      10.192
  O       71.622     488.705      10.004
  O       72.534     487.518      12.027
  O       70.376     486.582      10.948
  H       73.451     487.780      11.839
  H       73.647     489.141      10.145
  H       72.551     490.129      11.160
  H       72.618     490.385       9.401
  H       67.380     484.229       6.614
  H       68.489     484.837       7.820
  H       66.941     484.186       8.304

 3  4  5  6  7  8  9  10  11  12  13  23  28  29  30  31  32 0
 6-311+G(2d,p)
 ****
 33  34 0
 6-311+G(2d,p)
 ****
 1  2  14  15  16  17  18  19  20  21  22  24  25  26 0
 3-21G
 ****
 27  35  36  37  38  39  40  41  42  43  44  45 0
 3-21G
 ****


