%nproc=1
%NoSave
%Mem=1900MB
#P OB98/GEN NMR

erre ene a

0 1
  C       63.197    -126.627      69.316
  O       64.571    -126.970      69.276
  P       65.297    -127.350      70.652
  C       65.522    -129.937      70.636
  O       64.791    -128.808      71.093
  C       65.184    -131.176      71.466
  O       65.632    -130.982      72.833
  C       63.686    -131.489      71.519
  O       63.499    -132.910      71.579
  C       63.254    -130.920      72.854
  O       62.065    -131.548      73.332
  C       64.498    -131.192      73.698
  N       64.406    -131.092      78.749
  C       64.575    -132.164      77.897
  N       64.642    -133.385      78.471
  N       64.675    -132.051      76.599
  C       64.586    -130.769      76.166
  C       64.434    -129.623      76.913
  C       64.312    -129.766      78.348
  O       64.133    -128.860      79.155
  N       64.420    -128.506      76.121
  C       64.518    -128.972      74.893
  N       64.585    -130.341      74.866
  O       64.594    -126.373      71.708
  O       66.776    -127.159      70.649
  H       61.851    -131.134      74.191
  H       65.203    -125.649      71.947
  H       64.322    -131.233      79.743
  H       64.520    -128.370      73.994
  H       64.533    -132.234      74.039
  H       63.058    -129.845      72.760
  H       64.503    -133.546      79.458
  H       63.107    -131.082      70.684
  H       64.719    -134.192      77.866
  H       65.743    -132.029      71.064
  H       66.590    -129.728      70.724
  H       65.295    -130.118      69.580
  P       62.597    -133.550      70.414
  C       64.580    -134.581      69.081
  O       63.540    -133.626      69.123
  O       61.564    -132.380      70.064
  O       61.913    -134.821      70.798
  H       60.746    -132.755      69.687
  H       64.387    -135.279      68.261
  H       64.664    -135.145      70.015
  H       65.527    -134.068      68.894
  H       62.857    -126.400      68.327
  H       63.061    -125.772      69.945
  H       62.635    -127.450      69.706

 3  4  5  6  7  8  9  10  11  12  23  26  30  31 0
 6-311+G(2d,p)
 ****
 33  35  36  37  38 0
 6-311+G(2d,p)
 ****
 1  2  13  14  15  16  17  18  19  20  21  22  24  25 0
 3-21G
 ****
 27  28  29  32  34  39  40  41  42  43  44  45  46  47  48  49 0
 3-21G
 ****


