%nproc=1
%NoSave
%Mem=1900MB
#P OB98/GEN NMR

erre ene a

0 1
  C     -465.443      90.963    -445.213
  O     -466.071      90.177    -446.203
  H     -464.409      90.625    -445.103
  H     -465.957      90.835    -444.255
  H     -465.437      92.020    -445.488
  P     -467.479      90.660    -446.791
  C     -467.113      89.945    -449.243
  O     -467.243      91.027    -448.335
  C     -465.783      90.030    -450.004
  O     -464.698      89.739    -449.088
  C     -465.712      88.995    -451.129
  O     -464.869      89.417    -452.197
  C     -465.069      87.797    -450.439
  O     -464.431      86.903    -451.349
  C     -464.108      88.484    -449.475
  N     -461.590      84.505    -447.525
  C     -461.766      84.860    -448.847
  N     -461.197      84.052    -449.770
  N     -462.464      85.904    -449.229
  C     -463.035      86.578    -448.202
  C     -462.948      86.310    -446.857
  C     -462.148      85.174    -446.446
  O     -461.978      84.796    -445.286
  N     -463.674      87.211    -446.116
  C     -464.197      88.021    -447.013
  N     -463.820      87.693    -448.293
  O     -467.694      92.100    -446.121
  O     -468.639      89.752    -446.523
  H     -465.118      86.562    -451.953
  H     -468.640      92.337    -446.119
  H     -461.021      83.711    -447.285
  H     -464.842      88.862    -446.790
  H     -463.154      88.699    -449.965
  H     -465.858      87.234    -449.930
  H     -460.831      83.149    -449.527
  H     -466.688      88.737    -451.527
  H     -461.572      84.118    -450.724
  H     -465.626      91.050    -450.367
  H     -467.957      90.007    -449.934
  H     -467.192      88.993    -448.718
  P     -465.541      89.761    -453.610
  C     -464.672      92.060    -454.591
  O     -465.605      91.342    -453.809
  O     -467.070      89.341    -453.417
  O     -464.911      89.065    -454.775
  H     -467.297      88.600    -454.010
  H     -464.919      93.101    -454.575
  H     -464.701      91.702    -455.599
  H     -463.689      91.920    -454.191

 6  7  8  9  10  11  12  13  14  15  26  29  33  34 0
 6-311+G(2d,p)
 ****
 36  38  39  40  41 0
 6-311+G(2d,p)
 ****
 1  2  3  4  5  16  17  18  19  20  21  22  23  24  25 0
 3-21G
 ****
 27  28  30  31  32  35  37  42  43  44  45  46  47 0
 3-21G
 ****
 48  49 0
 3-21G
 ****


