%nproc=1
%NoSave
%Mem=1900MB
#P OB98/GEN NMR

erre ene a

0 1
  C        7.225     163.548     -80.657
  O        5.869     163.811     -80.941
  H        7.784     163.532     -81.597
  H        7.325     162.575     -80.171
  H        7.639     164.332     -80.017
  P        4.862     163.906     -79.692
  C        3.921     162.132     -78.035
  O        4.578     162.380     -79.272
  C        3.756     160.627     -77.810
  O        2.768     160.114     -78.737
  C        5.049     159.837     -78.019
  O        5.176     158.859     -76.985
  C        4.862     159.171     -79.369
  O        5.626     157.972     -79.491
  C        3.341     158.990     -79.430
  N        2.857     158.910     -80.806
  C        3.225     157.779     -81.542
  O        3.937     156.914     -81.028
  N        2.827     157.679     -82.849
  C        2.169     158.652     -83.398
  N        1.825     158.504     -84.705
  C        1.801     159.887     -82.676
  C        2.165     159.945     -81.398
  O        3.493     164.374     -80.369
  O        5.317     164.784     -78.574
  H        5.585     157.680     -80.429
  H        2.841     164.679     -79.693
  H        1.267     160.677     -83.183
  H        1.939     160.814     -80.789
  H        3.038     158.076     -78.899
  H        5.187     159.857     -80.161
  H        5.937     160.467     -78.017
  H        3.351     160.470     -76.804
  H        2.103     157.650     -85.169
  H        2.938     162.614     -78.054
  H        1.338     159.209     -85.240
  H        4.515     162.561     -77.221
  P        6.335     159.128     -75.904
  C        8.924     158.984     -75.877
  O        7.723     158.649     -76.555
  O        6.045     158.038     -74.769
  O        6.342     160.522     -75.370
  H        5.568     158.447     -74.020
  H        9.761     158.602     -76.424
  H        8.912     158.554     -74.897
  H        9.005     160.048     -75.799

 6  7  8  9  10  11  12  13  14  15  16  26  30  31  32  33  35 0
 6-311+G(2d,p)
 ****
 37  38 0
 6-311+G(2d,p)
 ****
 1  2  3  4  5  17  18  19  20  21  22  23  24  25 0
 3-21G
 ****
 27  28  29  34  36  39  40  41  42  43  44  45  46 0
 3-21G
 ****


