%nproc=1
%NoSave
%Mem=1900MB
#P OB98/GEN NMR

erre ene a

0 1
  C        0.205      78.641     -67.291
  O        1.581      78.579     -66.972
  H        0.033      79.377     -68.080
  H       -0.120      77.660     -67.648
  H       -0.377      78.905     -66.403
  P        2.265      79.936     -66.459
  C        3.811      81.561     -67.778
  O        2.650      80.743     -67.793
  C        4.674      81.234     -68.991
  O        5.265      79.923     -68.842
  C        3.899      81.192     -70.303
  O        3.701      82.480     -70.860
  C        4.837      80.360     -71.159
  O        5.944      81.168     -71.596
  C        5.315      79.300     -70.154
  N        3.417      75.483     -72.988
  C        4.260      76.496     -73.287
  N        4.733      77.458     -72.471
  C        4.260      77.301     -71.225
  C        3.400      76.314     -70.770
  C        2.967      75.372     -71.717
  N        2.083      74.357     -71.424
  N        3.121      76.495     -69.429
  C        3.815      77.559     -69.081
  N        4.493      78.101     -70.139
  O        3.689      79.459     -65.904
  O        1.484      80.726     -65.463
  H        5.575      81.881     -72.152
  H        4.098      80.163     -65.367
  H        4.594      76.540     -74.320
  H        3.850      77.981     -68.085
  H        6.348      78.983     -70.334
  H        4.353      79.966     -72.056
  H        2.949      80.658     -70.192
  H        5.491      81.964     -69.040
  H        4.376      81.364     -66.860
  H        1.719      73.827     -72.200
  H        1.630      74.354     -70.523
  H        3.514      82.614     -67.798
  P        2.350      82.728     -71.694
  C        1.859      83.579     -74.098
  O        2.796      82.973     -73.216
  O        1.890      84.179     -71.205
  O        1.292      81.695     -71.483
  H        0.917      84.254     -71.209
  H        2.296      83.677     -75.070
  H        1.595      84.547     -73.727
  H        0.982      82.969     -74.161

 6  7  8  9  10  11  12  13  14  15  25  28  32  33  34  35 0
 6-311+G(2d,p)
 ****
 36  39  40 0
 6-311+G(2d,p)
 ****
 1  2  3  4  5  16  17  18  19  20  21  22  23  24 0
 3-21G
 ****
 26  27  29  30  31  37  38  41  42  43  44  45  46  47 0
 3-21G
 ****
 48 0
 3-21G
 ****


