%nproc=1
%NoSave
%Mem=1900MB
#P OB98/GEN NMR

erre ene a

0 1
  C     -511.996    1023.523    -405.480
  O     -510.967    1023.552    -404.509
  P     -509.678    1024.478    -404.730
  C     -509.965    1026.101    -402.717
  O     -510.026    1025.916    -404.116
  C     -509.707    1027.572    -402.366
  O     -508.489    1027.981    -403.032
  C     -510.788    1028.544    -402.833
  O     -510.649    1029.762    -402.101
  C     -510.395    1028.766    -404.282
  O     -510.959    1029.961    -404.814
  C     -508.845    1028.741    -404.214
  N     -508.267    1028.113    -405.413
  C     -508.686    1028.607    -406.645
  O     -509.440    1029.570    -406.759
  N     -508.272    1027.902    -407.741
  C     -507.541    1026.746    -407.714
  O     -507.448    1025.973    -408.658
  C     -506.938    1026.412    -406.416
  C     -507.339    1027.086    -405.333
  O     -509.691    1024.724    -406.313
  O     -508.394    1023.884    -404.267
  H     -511.929    1029.926    -404.633
  H     -509.086    1024.096    -406.754
  H     -508.694    1028.173    -408.625
  H     -506.232    1025.597    -406.376
  H     -506.954    1026.828    -404.355
  H     -508.430    1029.748    -404.126
  H     -510.765    1027.929    -404.883
  H     -511.808    1028.158    -402.741
  H     -509.550    1027.668    -401.286
  H     -509.185    1025.458    -402.299
  H     -510.909    1025.787    -402.251
  P     -511.949    1030.686    -401.929
  C     -512.501    1030.391    -399.443
  O     -512.825    1030.018    -400.767
  O     -512.690    1031.015    -403.188
  O     -511.366    1032.001    -401.226
  H     -511.992    1032.744    -401.336
  H     -513.409    1030.324    -398.829
  H     -512.119    1031.411    -399.397
  H     -511.753    1029.702    -399.045
  H     -512.768    1022.854    -405.162
  H     -511.596    1023.188    -406.414
  H     -512.403    1024.506    -405.598

 3  4  5  6  7  8  9  10  11  12  13  23  28  29  30  31  32 0
 6-311+G(2d,p)
 ****
 33  34 0
 6-311+G(2d,p)
 ****
 1  2  14  15  16  17  18  19  20  21  22  24  25  26  27 0
 3-21G
 ****
 35  36  37  38  39  40  41  42  43  44  45 0
 3-21G
 ****


