%nproc=1
%NoSave
%Mem=1900MB
#P OB98/GEN NMR

erre ene a

0 1
  C      672.235    -564.035    -923.790
  O      672.415    -562.706    -923.339
  H      671.441    -564.046    -924.541
  H      671.938    -564.688    -922.966
  H      673.155    -564.405    -924.249
  P      673.419    -562.447    -922.118
  C      675.452    -562.516    -923.721
  O      674.717    -561.761    -922.762
  C      675.639    -561.707    -924.997
  O      674.371    -561.504    -925.656
  C      676.206    -560.314    -924.747
  O      677.589    -560.370    -924.479
  C      675.820    -559.610    -926.036
  O      676.726    -559.935    -927.098
  C      674.420    -560.215    -926.306
  N      673.336    -559.349    -925.846
  C      673.197    -558.132    -926.516
  O      673.951    -557.835    -927.444
  N      672.206    -557.268    -926.103
  C      671.424    -557.596    -925.128
  N      670.470    -556.698    -924.764
  C      671.533    -558.874    -924.398
  C      672.503    -559.697    -924.801
  O      673.716    -563.616    -921.229
  O      672.734    -561.239    -921.313
  H      676.585    -560.886    -927.285
  H      672.122    -561.588    -920.638
  H      670.857    -559.115    -923.590
  H      672.650    -560.660    -924.322
  H      674.277    -560.398    -927.382
  H      675.820    -558.531    -925.914
  H      675.671    -559.829    -923.921
  H      676.285    -562.278    -925.677
  H      670.436    -555.828    -925.286
  H      674.877    -563.426    -923.930
  H      669.756    -556.883    -924.077
  H      676.431    -562.813    -923.312
  P      678.233    -559.493    -923.297
  C      678.212    -561.317    -921.469
  O      679.018    -560.538    -922.362
  O      677.283    -558.585    -922.600
  O      679.431    -558.721    -924.043
  H      679.080    -557.988    -924.618
  H      678.840    -561.972    -920.902
  H      677.511    -561.895    -922.034
  H      677.684    -560.665    -920.805

 6  7  8  9  10  11  12  13  14  15  16  26  30  31  32  33  35 0
 6-311+G(2d,p)
 ****
 37  38 0
 6-311+G(2d,p)
 ****
 1  2  3  4  5  17  18  19  20  21  22  23  24  25 0
 3-21G
 ****
 27  28  29  34  36  39  40  41  42  43  44  45  46 0
 3-21G
 ****


