%nproc=1
%NoSave
%Mem=1900MB
#P OB98/GEN NMR

erre ene a

0 1
  C      161.012     533.107     352.701
  O      160.076     533.540     353.670
  H      161.808     532.561     353.203
  H      161.445     533.968     352.181
  H      160.523     532.445     351.983
  P      158.843     534.420     353.141
  C      160.156     536.580     352.630
  O      159.503     535.437     352.086
  C      160.349     537.645     351.552
  O      159.044     538.019     351.032
  C      161.022     538.925     352.068
  O      161.864     539.457     351.040
  C      159.854     539.868     352.282
  O      160.249     541.239     352.256
  C      158.917     539.451     351.146
  N      155.633     543.336     351.048
  C      156.882     543.195     350.555
  N      157.684     542.108     350.608
  C      157.047     541.080     351.195
  C      155.774     541.069     351.740
  C      155.056     542.278     351.658
  N      153.793     542.441     352.182
  N      155.496     539.838     352.295
  C      156.570     539.109     352.077
  N      157.541     539.823     351.430
  O      157.999     535.054     354.195
  O      158.082     533.380     352.188
  H      160.343     541.521     351.325
  H      158.705     532.913     351.602
  H      157.301     544.067     350.065
  H      156.713     538.072     352.372
  H      159.188     539.906     350.189
  H      159.391     539.672     353.256
  H      161.605     538.772     352.976
  H      160.911     537.208     350.717
  H      161.132     536.298     353.042
  H      153.349     543.342     352.079
  H      153.337     541.667     352.638
  H      159.529     536.971     353.443
  P      163.438     539.142     351.094
  C      164.379     540.945     352.683
  O      164.003     539.583     352.532
  O      164.235     539.634     349.933
  O      163.482     537.542     351.184
  H      164.196     537.211     350.600
  H      164.736     541.108     353.678
  H      163.531     541.571     352.501
  H      165.153     541.181     351.983

 6  7  8  9  10  11  12  13  14  15  25  28  32  33  34  35 0
 6-311+G(2d,p)
 ****
 36  39  40 0
 6-311+G(2d,p)
 ****
 1  2  3  4  5  16  17  18  19  20  21  22  23  24 0
 3-21G
 ****
 26  27  29  30  31  37  38  41  42  43  44  45  46  47 0
 3-21G
 ****
 48 0
 3-21G
 ****


