%nproc=1
%NoSave
%Mem=1900MB
#P OB98/GEN NMR

erre ene a

0 1
  C     -920.600     458.665     119.726
  O     -920.483     457.556     120.593
  H     -921.051     459.497     120.270
  H     -921.243     458.415     118.874
  H     -919.616     458.976     119.357
  P     -919.657     456.294     120.043
  C     -919.978     455.508     122.497
  O     -919.829     455.128     121.131
  C     -919.783     454.284     123.409
  O     -918.541     453.621     123.092
  C     -919.727     454.624     124.891
  O     -921.025     454.765     125.460
  C     -919.019     453.377     125.431
  O     -919.963     452.290     125.501
  C     -917.978     453.108     124.327
  N     -912.991     452.954     123.410
  C     -914.001     452.091     123.005
  N     -913.625     451.032     122.255
  N     -915.258     452.252     123.313
  C     -915.492     453.350     124.073
  C     -914.573     454.273     124.540
  C     -913.179     454.090     124.186
  O     -912.265     454.830     124.489
  N     -915.181     455.247     125.272
  C     -916.464     454.912     125.283
  N     -916.690     453.757     124.574
  O     -918.127     456.745     120.228
  O     -919.937     455.902     118.630
  H     -920.697     452.585     126.081
  H     -917.604     456.388     119.487
  H     -912.036     452.772     123.157
  H     -917.246     455.461     125.774
  H     -917.781     452.043     124.196
  H     -918.622     453.527     126.431
  H     -912.666     450.820     122.031
  H     -919.090     455.502     125.083
  H     -914.349     450.401     121.916
  H     -920.597     453.590     123.196
  H     -920.983     455.912     122.659
  H     -919.229     456.278     122.738
  P     -921.276     456.007     126.448
  C     -923.771     455.462     126.010
  O     -922.791     455.856     126.951
  O     -921.337     457.255     125.453
  O     -920.242     456.187     127.507
  H     -921.119     458.084     125.928
  H     -924.725     455.405     126.491
  H     -923.516     454.503     125.610
  H     -923.813     456.180     125.217

 6  7  8  9  10  11  12  13  14  15  26  29  33  34 0
 6-311+G(2d,p)
 ****
 36  38  39  40  41 0
 6-311+G(2d,p)
 ****
 1  2  3  4  5  16  17  18  19  20  21  22  23  24  25 0
 3-21G
 ****
 27  28  30  31  32  35  37  42  43  44  45  46  47 0
 3-21G
 ****
 48  49 0
 3-21G
 ****


