%nproc=1
%NoSave
%Mem=1900MB
#P OB98/GEN NMR

erre ene a

0 1
  C     -892.080     429.881    -864.224
  O     -892.380     429.471    -865.571
  P     -891.110     429.026    -866.475
  C     -891.430     426.580    -867.397
  O     -890.930     427.422    -866.328
  C     -892.750     425.954    -866.961
  O     -893.820     426.935    -866.810
  C     -893.290     424.940    -867.983
  O     -892.550     423.719    -867.889
  C     -894.740     424.818    -867.490
  O     -894.840     423.954    -866.345
  C     -895.050     426.265    -867.125
  N     -899.510     428.462    -868.384
  C     -899.110     427.816    -867.291
  N     -897.920     427.256    -867.027
  C     -897.060     427.436    -868.052
  C     -897.330     428.077    -869.274
  C     -898.620     428.613    -869.427
  N     -899.020     429.244    -870.555
  N     -896.220     428.073    -870.082
  C     -895.300     427.384    -869.377
  N     -895.790     427.007    -868.157
  O     -889.850     429.619    -865.670
  O     -891.190     429.545    -867.874
  H     -894.490     423.086    -866.618
  H     -889.470     430.377    -866.176
  H     -899.860     427.739    -866.490
  H     -894.310     427.184    -869.740
  H     -895.680     426.331    -866.201
  H     -895.400     424.420    -868.294
  H     -893.230     425.333    -868.982
  H     -892.600     425.475    -865.966
  H     -890.700     425.811    -867.633
  H     -900.000     429.536    -870.624
  H     -898.410     429.303    -871.358
  H     -891.570     427.204    -868.275
  P     -891.430     423.446    -868.994
  C     -889.290     423.456    -867.573
  O     -890.110     424.211    -868.441
  O     -891.930     424.430    -870.206
  O     -891.240     422.025    -869.389
  H     -892.140     425.327    -869.858
  H     -888.430     424.094    -867.295
  H     -888.930     422.555    -868.103
  H     -889.850     423.185    -866.692
  H     -892.986     430.151    -863.723
  H     -891.420     430.723    -864.246
  H     -891.611     429.074    -863.702

 3  4  5  6  7  8  9  10  11  12  22  25  29  30  31  32 0
 6-311+G(2d,p)
 ****
 33  36  37 0
 6-311+G(2d,p)
 ****
 1  2  13  14  15  16  17  18  19  20  21  23  24  26 0
 3-21G
 ****
 27  28  34  35  38  39  40  41  42  43  44  45  46  47  48 0
 3-21G
 ****


