%nproc=1
%NoSave
%Mem=1900MB
#P OB98/GEN NMR

erre ene a

0 1
  C      139.331    -890.940     -14.740
  O      138.098    -890.470     -14.199
  P      137.138    -891.310     -13.238
  C      135.389    -892.610     -14.710
  O      136.641    -892.600     -14.047
  C      135.019    -894.010     -15.194
  O      134.958    -894.910     -14.038
  C      133.631    -894.060     -15.873
  O      133.597    -894.890     -17.039
  C      132.712    -894.460     -14.715
  O      131.483    -895.000     -15.153
  C      133.594    -895.390     -13.902
  N      131.294    -898.130     -10.268
  C      131.330    -898.360     -11.620
  N      130.675    -899.440     -12.082
  N      131.970    -897.580     -12.467
  C      132.533    -896.490     -11.876
  C      132.528    -896.150     -10.544
  C      131.890    -897.050      -9.620
  O      131.821    -896.900      -8.405
  N      133.215    -894.960     -10.327
  C      133.584    -894.580     -11.527
  N      133.217    -895.480     -12.498
  O      136.105    -890.520     -12.510
  O      138.141    -891.930     -12.144
  H      130.789    -894.720     -14.511
  H      137.631    -892.000     -11.320
  H      130.811    -898.780      -9.640
  H      134.148    -893.690     -11.745
  H      133.573    -896.430     -14.290
  H      132.489    -893.560     -14.145
  H      130.069    -900.000     -11.496
  H      133.349    -893.070     -16.234
  H      130.531    -899.470     -13.085
  H      135.787    -894.390     -15.846
  H      135.497    -891.950     -15.574
  H      134.597    -892.190     -14.065
  P      134.016    -894.490     -18.543
  C      131.711    -893.670     -19.342
  O      133.070    -893.310     -19.035
  O      133.557    -895.730     -19.418
  O      135.482    -894.220     -18.718
  H      134.338    -896.150     -19.862
  H      131.256    -892.860     -19.900
  H      131.156    -893.810     -18.418
  H      131.691    -894.580     -19.935
  H      139.768    -890.176     -15.348
  H      139.150    -891.810     -15.336
  H      140.000    -891.186     -13.942

 3  4  5  6  7  8  9  10  11  12  23  26  30  31 0
 6-311+G(2d,p)
 ****
 33  35  36  37  38 0
 6-311+G(2d,p)
 ****
 1  2  13  14  15  16  17  18  19  20  21  22  24  25 0
 3-21G
 ****
 27  28  29  32  34  39  40  41  42  43  44  45  46  47  48  49 0
 3-21G
 ****


