%nproc=1
%NoSave
%Mem=1900MB
#P OB98/GEN NMR

erre ene a

0 1
  C      169.010      17.534     240.924
  O      170.120      18.184     241.515
  H      169.223      16.463     240.866
  H      168.839      17.911     239.912
  H      168.113      17.679     241.532
  P      170.052      19.772     241.708
  C      171.597      19.836     239.641
  O      170.472      20.405     240.296
  C      171.323      19.700     238.148
  O      169.972      19.248     237.923
  C      171.476      21.006     237.367
  O      172.843      21.257     237.083
  C      170.657      20.683     236.128
  O      171.415      19.823     235.255
  C      169.471      19.914     236.734
  N      165.339      22.356     235.094
  C      166.295      21.653     234.385
  N      166.149      21.637     233.043
  N      167.311      21.043     234.942
  C      167.361      21.206     236.281
  C      166.485      21.892     237.093
  C      165.337      22.517     236.476
  O      164.456      23.134     237.069
  N      166.905      21.893     238.399
  C      168.010      21.176     238.383
  N      168.341      20.748     237.119
  O      170.813      20.332     242.871
  O      168.487      20.088     241.805
  H      170.960      19.829     234.394
  H      168.185      20.090     242.732
  H      164.590      22.822     234.608
  H      168.607      20.938     239.255
  H      169.086      19.144     236.058
  H      170.378      21.568     235.555
  H      165.571      22.312     232.560
  H      171.007      21.848     237.886
  H      166.866      21.171     232.500
  H      171.992      18.926     237.750
  H      171.780      18.853     240.088
  H      172.484      20.462     239.794
  P      173.603      22.520     237.721
  C      174.681      23.079     235.442
  O      173.838      23.526     236.494
  O      174.832      22.188     238.498
  O      172.484      23.271     238.576
  H      172.408      22.946     239.507
  H      174.752      23.841     234.694
  H      174.271      22.191     235.009
  H      175.656      22.869     235.831

 6  7  8  9  10  11  12  13  14  15  26  29  33  34 0
 6-311+G(2d,p)
 ****
 36  38  39  40  41 0
 6-311+G(2d,p)
 ****
 1  2  3  4  5  16  17  18  19  20  21  22  23  24  25 0
 3-21G
 ****
 27  28  30  31  32  35  37  42  43  44  45  46  47 0
 3-21G
 ****
 48  49 0
 3-21G
 ****


