%nproc=1
%NoSave
%Mem=1900MB
#P OB98/GEN NMR

erre ene a

0 1
  C       43.283     387.334     643.802
  O       43.564     386.517     644.923
  H       42.249     387.681     643.874
  H       43.408     386.768     642.876
  H       43.949     388.204     643.801
  P       45.029     385.869     644.993
  C       44.856     385.727     647.571
  O       45.025     385.018     646.353
  C       45.929     385.315     648.582
  O       47.239     385.464     648.007
  C       45.927     386.140     649.869
  O       44.964     385.644     650.777
  C       47.348     385.890     650.372
  O       47.405     384.624     651.039
  C       48.164     385.829     649.065
  N       52.181     388.907     649.945
  C       51.709     387.837     650.612
  N       50.609     387.093     650.360
  C       49.963     387.564     649.272
  C       50.323     388.651     648.490
  C       51.493     389.337     648.860
  N       51.972     390.437     648.177
  N       49.425     388.839     647.461
  C       48.571     387.842     647.584
  N       48.832     387.063     648.684
  O       46.166     386.825     644.818
  O       44.919     384.730     643.873
  H       48.286     384.555     651.455
  H       44.048     384.293     643.916
  H       52.296     387.531     651.477
  H       47.759     387.631     646.898
  H       48.932     385.055     649.104
  H       47.680     386.651     651.079
  H       45.798     387.208     649.668
  H       45.786     384.244     648.810
  H       43.857     385.529     647.996
  H       52.689     390.984     648.619
  H       51.385     390.830     647.445
  H       44.935     386.796     647.350
  P       44.394     386.562     651.964
  C       42.645     384.669     651.969
  O       43.355     385.617     652.758
  O       43.865     387.883     651.530
  O       45.615     386.685     652.992
  H       45.459     387.436     653.598
  H       41.990     384.102     652.597
  H       43.340     384.010     651.492
  H       42.071     385.182     651.226

 6  7  8  9  10  11  12  13  14  15  25  28  32  33  34  35 0
 6-311+G(2d,p)
 ****
 36  39  40 0
 6-311+G(2d,p)
 ****
 1  2  3  4  5  16  17  18  19  20  21  22  23  24 0
 3-21G
 ****
 26  27  29  30  31  37  38  41  42  43  44  45  46  47 0
 3-21G
 ****
 48 0
 3-21G
 ****


