%nproc=1
%NoSave
%Mem=1900MB
#P OB98/GEN NMR

erre ene a

0 1
  C       16.108      -0.735       3.414
  O       16.814       0.229       4.168
  H       16.550      -1.717       3.599
  H       16.190      -0.511       2.348
  H       15.056      -0.765       3.708
  P       16.244       1.725       4.237
  C       14.276       2.783       5.523
  O       14.767       1.630       4.852
  C       12.777       2.927       5.279
  O       12.519       3.143       3.876
  C       11.964       1.697       5.665
  O       11.811       1.611       7.069
  C       10.678       1.955       4.894
  O        9.842       2.889       5.593
  C       11.224       2.573       3.585
  N       11.310       1.611       2.487
  C       10.412       1.784       1.439
  O        9.555       2.666       1.429
  N       10.521       0.893       0.405
  C       11.365      -0.179       0.359
  O       11.386      -0.981      -0.570
  C       12.267      -0.333       1.509
  C       12.200       0.555       2.503
  O       16.350       2.519       2.978
  O       17.085       2.392       5.426
  H       10.299       3.752       5.558
  H       17.801       2.939       5.055
  H        9.871       0.995      -0.357
  H       12.945      -1.174       1.509
  H       12.854       0.454       3.362
  H       10.582       3.402       3.261
  H       10.087       1.051       4.749
  H       12.436       0.791       5.268
  H       12.426       3.812       5.826
  H       14.796       3.665       5.133
  H       14.488       2.688       6.592
  P       11.415       0.228       7.766
  C       12.275      -2.184       7.749
  O       12.300      -0.927       7.086
  O        9.953      -0.062       7.822
  O       12.038       0.343       9.235
  H       11.325       0.496       9.886
  H       12.892      -2.879       7.219
  H       11.270      -2.551       7.780
  H       12.643      -2.068       8.747

 6  7  8  9  10  11  12  13  14  15  16  26  31  32  33  34  35 0
 6-311+G(2d,p)
 ****
 36  37 0
 6-311+G(2d,p)
 ****
 1  2  3  4  5  17  18  19  20  21  22  23  24  25 0
 3-21G
 ****
 27  28  29  30  38  39  40  41  42  43  44  45 0
 3-21G
 ****


