%nproc=1
%NoSave
%Mem=1900MB
#P OB98/GEN NMR

erre ene a

0 1
  C     -519.726    -431.009     666.626
  O     -518.445    -430.565     667.034
  P     -517.755    -431.377     668.239
  C     -516.480    -433.078     666.726
  O     -516.405    -432.014     667.656
  C     -515.213    -433.097     665.855
  O     -515.123    -431.866     665.094
  C     -513.907    -433.205     666.644
  O     -513.641    -434.542     666.985
  C     -512.910    -432.607     665.637
  O     -512.513    -433.587     664.660
  C     -513.731    -431.487     664.997
  N     -511.789    -426.837     664.380
  C     -511.650    -427.970     663.605
  N     -510.931    -427.850     662.472
  N     -512.178    -429.137     663.892
  C     -512.854    -429.111     665.073
  C     -513.056    -428.080     665.944
  C     -512.509    -426.778     665.572
  O     -512.694    -425.731     666.173
  N     -513.776    -428.454     667.024
  C     -514.055    -429.727     666.809
  N     -513.534    -430.170     665.629
  O     -518.716    -432.649     668.435
  O     -517.575    -430.606     669.518
  H     -511.816    -433.202     664.076
  H     -519.349    -432.501     669.185
  H     -511.369    -425.966     664.089
  H     -514.646    -430.358     667.468
  H     -513.484    -431.355     663.933
  H     -511.974    -432.279     666.131
  H     -510.474    -426.976     662.177
  H     -513.943    -432.573     667.533
  H     -510.804    -428.654     661.882
  H     -515.296    -433.922     665.129
  H     -517.343    -432.946     666.075
  H     -516.565    -434.026     667.274
  P     -512.629    -434.820     668.189
  C     -514.325    -434.909     670.164
  O     -513.424    -435.619     669.327
  O     -512.415    -433.362     668.830
  O     -511.317    -435.416     667.772
  H     -511.465    -433.269     669.132
  H     -515.106    -435.583     670.467
  H     -514.764    -434.040     669.656
  H     -513.791    -434.562     671.053
  H     -520.078    -430.394     665.824
  H     -520.405    -430.943     667.450
  H     -519.663    -432.025     666.296

 3  4  5  6  7  8  9  10  11  12  23  26  30  31 0
 6-311+G(2d,p)
 ****
 33  35  36  37  38 0
 6-311+G(2d,p)
 ****
 1  2  13  14  15  16  17  18  19  20  21  22  24  25 0
 3-21G
 ****
 27  28  29  32  34  39  40  41  42  43  44  45  46  47  48  49 0
 3-21G
 ****


