%nproc=1
%NoSave
%Mem=1900MB
#P OB98/GEN NMR

erre ene a

0 1
  C      -97.602      28.258      47.297
  O      -96.413      27.527      47.489
  H      -97.625      28.619      46.265
  H      -97.630      29.125      47.962
  H      -98.476      27.626      47.467
  P      -96.093      26.913      48.937
  C      -96.432      24.470      48.224
  O      -96.935      25.542      49.011
  C      -96.491      23.149      48.991
  O      -97.846      22.924      49.467
  C      -96.087      21.928      48.151
  O      -95.173      21.114      48.890
  C      -97.396      21.178      47.959
  O      -97.211      19.789      47.704
  C      -98.122      21.527      49.262
  N      -99.550      21.247      49.186
  C      -99.905      19.923      48.912
  O      -99.033      19.066      48.756
  N     -101.231      19.610      48.767
  C     -102.123      20.547      48.840
  N     -103.418      20.175      48.658
  C     -101.791      21.963      49.100
  C     -100.498      22.239      49.266
  O      -96.313      27.851      50.075
  O      -94.583      26.391      48.837
  H      -98.091      19.353      47.703
  H      -94.205      26.332      49.744
  H     -102.572      22.707      49.147
  H     -100.157      23.251      49.459
  H      -97.700      20.968      50.108
  H      -97.937      21.608      47.105
  H      -95.635      22.194      47.197
  H      -95.863      23.240      49.886
  H     -103.601      19.195      48.475
  H      -95.399      24.701      47.937
  H     -104.195      20.818      48.669
  H      -97.046      24.386      47.322
  P      -93.962      20.472      48.055
  C      -92.405      22.537      48.278
  O      -93.118      21.672      47.406
  O      -94.695      19.792      46.806
  O      -93.165      19.479      48.832
  H      -94.650      18.821      46.885
  H      -91.895      23.281      47.703
  H      -91.692      21.969      48.839
  H      -93.091      23.012      48.948

 6  7  8  9  10  11  12  13  14  15  16  26  30  31  32  33  35 0
 6-311+G(2d,p)
 ****
 37  38 0
 6-311+G(2d,p)
 ****
 1  2  3  4  5  17  18  19  20  21  22  23  24  25 0
 3-21G
 ****
 27  28  29  34  36  39  40  41  42  43  44  45  46 0
 3-21G
 ****


