%nproc=1
%NoSave
%Mem=1900MB
#P OB98/GEN NMR

erre ene a

0 1
  C     -110.271      87.978     202.292
  O     -108.900      88.077     202.602
  H     -110.543      86.919     202.263
  H     -110.479      88.414     201.313
  H     -110.872      88.473     203.059
  P     -108.185      89.514     202.523
  C     -107.562      89.502     205.011
  O     -108.341      90.135     204.002
  C     -107.440      90.379     206.258
  O     -106.631      91.545     205.957
  C     -108.785      90.879     206.797
  O     -108.830      90.691     208.213
  C     -108.782      92.363     206.460
  O     -109.637      93.112     207.317
  C     -107.285      92.679     206.555
  N     -106.923      93.925     205.889
  C     -107.279      95.109     206.543
  O     -107.897      95.068     207.608
  N     -106.961      96.309     205.961
  C     -106.387      96.330     204.801
  N     -106.109      97.552     204.272
  C     -106.037      95.106     204.051
  C     -106.324      93.951     204.651
  O     -108.671      90.392     201.419
  O     -106.623      89.181     202.437
  H     -109.409      92.899     208.249
  H     -106.140      89.963     202.071
  H     -105.569      95.175     203.081
  H     -106.095      93.002     204.178
  H     -106.966      92.743     207.605
  H     -109.126      92.504     205.428
  H     -109.642      90.373     206.355
  H     -106.892      89.816     207.022
  H     -106.363      98.366     204.818
  H     -106.570      89.283     204.601
  H     -105.670      97.689     203.373
  H     -108.054      88.562     205.283
  P     -108.976      89.172     208.721
  C     -106.916      88.670     210.207
  O     -107.499      88.574     208.917
  O     -109.531      88.411     207.428
  O     -109.889      89.019     209.891
  H     -110.494      88.275     207.506
  H     -105.939      88.234     210.190
  H     -107.527      88.149     210.914
  H     -106.843      89.699     210.490

 6  7  8  9  10  11  12  13  14  15  16  26  30  31  32  33  35 0
 6-311+G(2d,p)
 ****
 37  38 0
 6-311+G(2d,p)
 ****
 1  2  3  4  5  17  18  19  20  21  22  23  24  25 0
 3-21G
 ****
 27  28  29  34  36  39  40  41  42  43  44  45  46 0
 3-21G
 ****


