%nproc=1
%NoSave
%Mem=1900MB
#P OB98/GEN NMR

erre ene a

0 1
  C     -323.109     326.525     372.840
  O     -322.991     327.017     371.519
  H     -324.031     325.941     372.916
  H     -323.159     327.355     373.549
  H     -322.259     325.877     373.080
  P     -321.706     327.926     371.208
  C     -322.176     327.469     368.697
  O     -321.876     328.437     369.694
  C     -322.846     328.133     367.495
  O     -324.262     328.296     367.726
  C     -322.296     329.511     367.150
  O     -321.116     329.413     366.372
  C     -323.464     330.112     366.381
  O     -323.483     329.657     365.012
  C     -324.675     329.567     367.151
  N     -328.399     332.704     368.474
  C     -328.259     331.914     367.356
  N     -329.231     332.017     366.419
  N     -327.250     331.103     367.159
  C     -326.340     331.132     368.162
  C     -326.379     331.859     369.327
  C     -327.516     332.727     369.547
  O     -327.734     333.406     370.546
  N     -325.277     331.605     370.107
  C     -324.561     330.758     369.392
  N     -325.157     330.453     368.197
  O     -320.511     326.864     371.102
  O     -321.411     328.984     372.215
  H     -322.756     330.079     364.523
  H     -319.684     327.284     371.396
  H     -329.212     333.292     368.578
  H     -323.612     330.337     369.699
  H     -325.528     329.360     366.492
  H     -323.407     331.201     366.346
  H     -329.825     332.833     366.357
  H     -322.123     330.098     368.063
  H     -329.124     331.458     365.586
  H     -322.733     327.450     366.639
  H     -322.857     326.722     369.120
  H     -321.252     326.975     368.387
  P     -319.772     330.060     366.972
  C     -318.227     328.195     366.031
  O     -318.574     329.573     366.024
  O     -319.535     329.237     368.322
  O     -319.848     331.531     367.214
  H     -318.911     329.717     368.902
  H     -317.417     328.028     365.353
  H     -319.072     327.613     365.727
  H     -317.931     327.907     367.018

 6  7  8  9  10  11  12  13  14  15  26  29  33  34 0
 6-311+G(2d,p)
 ****
 36  38  39  40  41 0
 6-311+G(2d,p)
 ****
 1  2  3  4  5  16  17  18  19  20  21  22  23  24  25 0
 3-21G
 ****
 27  28  30  31  32  35  37  42  43  44  45  46  47 0
 3-21G
 ****
 48  49 0
 3-21G
 ****


