%nproc=1
%NoSave
%Mem=1900MB
#P OB98/GEN NMR

erre ene a

0 1
  C       28.507    -204.843     -67.066
  O       28.009    -204.131     -65.948
  P       28.164    -202.535     -65.926
  C       25.954    -201.857     -67.174
  O       27.364    -201.980     -67.200
  C       25.539    -200.422     -67.516
  O       25.971    -200.117     -68.871
  C       24.027    -200.165     -67.447
  O       23.848    -198.823     -66.975
  C       23.599    -200.283     -68.900
  O       22.373    -199.619     -69.164
  C       24.814    -199.670     -69.604
  N       24.923    -200.051     -71.013
  C       25.082    -199.035     -71.951
  O       25.119    -197.839     -71.668
  N       25.175    -199.442     -73.259
  C       25.059    -200.723     -73.713
  O       25.131    -201.029     -74.897
  C       24.841    -201.747     -72.682
  C       24.794    -201.372     -71.403
  O       29.701    -202.369     -66.326
  O       27.779    -201.914     -64.627
  H       30.002    -203.033     -66.971
  H       21.736    -199.877     -68.472
  H       25.331    -198.725     -73.951
  H       24.729    -202.774     -73.004
  H       24.634    -202.108     -70.624
  H       24.785    -198.577     -69.522
  H       23.478    -201.341     -69.157
  H       23.513    -200.865     -66.783
  H       26.074    -199.740     -66.844
  H       25.585    -202.105     -66.175
  H       25.516    -202.569     -67.882
  P       22.553    -198.502     -66.073
  C       24.238    -198.377     -64.073
  O       22.962    -198.750     -64.546
  O       21.649    -199.785     -66.413
  O       21.870    -197.213     -66.388
  H       22.137    -200.620     -66.342
  H       24.204    -198.309     -62.983
  H       24.545    -197.406     -64.473
  H       24.972    -199.138     -64.358
  H       28.329    -205.889     -66.931
  H       29.559    -204.670     -67.160
  H       28.010    -204.508     -67.952

 3  4  5  6  7  8  9  10  11  12  13  24  28  29  30  31  32 0
 6-311+G(2d,p)
 ****
 33  34 0
 6-311+G(2d,p)
 ****
 1  2  14  15  16  17  18  19  20  21  22  23  25  26  27 0
 3-21G
 ****
 35  36  37  38  39  40  41  42  43  44  45 0
 3-21G
 ****


