%nproc=1
%NoSave
%Mem=1900MB
#P OB98/GEN NMR

erre ene a

0 1
  C      -95.842    -130.437    -418.778
  O      -96.713    -129.480    -418.202
  H      -95.321    -129.968    -419.618
  H      -96.418    -131.284    -419.160
  H      -95.101    -130.781    -418.054
  P      -97.499    -129.866    -416.860
  C      -99.712    -130.632    -417.948
  O      -98.546    -131.025    -417.237
  C     -100.614    -131.840    -418.225
  O     -101.142    -132.328    -416.962
  C     -101.801    -131.532    -419.142
  O     -102.043    -132.649    -419.997
  C     -102.961    -131.360    -418.174
  O     -104.220    -131.644    -418.781
  C     -102.581    -132.340    -417.061
  N     -106.954    -131.395    -414.711
  C     -106.710    -131.838    -416.005
  N     -107.786    -132.043    -416.789
  N     -105.511    -132.056    -416.481
  C     -104.529    -131.831    -415.573
  C     -104.636    -131.393    -414.270
  C     -105.970    -131.134    -413.766
  O     -106.246    -130.727    -412.645
  N     -103.410    -131.267    -413.683
  C     -102.550    -131.628    -414.619
  N     -103.182    -131.967    -415.790
  O      -98.094    -128.705    -416.127
  O      -96.414    -130.629    -415.968
  H     -104.899    -131.564    -418.081
  H      -96.098    -130.063    -415.244
  H     -107.899    -131.231    -414.404
  H     -101.474    -131.654    -414.512
  H     -102.901    -133.370    -417.277
  H     -102.983    -130.329    -417.799
  H     -108.745    -131.917    -416.474
  H     -101.636    -130.633    -419.744
  H     -107.643    -132.396    -417.720
  H      -99.996    -132.645    -418.641
  H      -99.400    -130.179    -418.896
  H     -100.258    -129.882    -417.364
  P     -101.275    -132.735    -421.401
  C     -103.054    -131.609    -422.873
  O     -101.744    -131.506    -422.326
  O     -101.301    -134.070    -422.067
  O      -99.768    -132.320    -421.009
  H      -99.145    -132.827    -421.567
  H     -103.261    -130.744    -423.467
  H     -103.768    -131.676    -422.079
  H     -103.117    -132.485    -423.484

 6  7  8  9  10  11  12  13  14  15  26  29  33  34 0
 6-311+G(2d,p)
 ****
 36  38  39  40  41 0
 6-311+G(2d,p)
 ****
 1  2  3  4  5  16  17  18  19  20  21  22  23  24  25 0
 3-21G
 ****
 27  28  30  31  32  35  37  42  43  44  45  46  47 0
 3-21G
 ****
 48  49 0
 3-21G
 ****


