%nproc=1
%NoSave
%Mem=1900MB
#P OB98/GEN NMR

erre ene a

0 1
  C      257.054     932.808     419.206
  O      256.575     931.782     418.346
  H      256.958     932.468     420.237
  H      256.455     933.719     419.082
  H      258.108     933.022     418.996
  P      256.544     932.063     416.764
  C      258.438     932.278     415.026
  O      257.967     931.604     416.186
  C      258.692     931.290     413.892
  O      259.743     930.382     414.320
  C      257.442     930.446     413.557
  O      257.100     930.474     412.174
  C      257.758     929.081     414.176
  O      257.105     927.991     413.574
  C      259.288     929.022     414.116
  N      259.892     928.134     415.117
  C      260.436     926.938     414.656
  O      260.485     926.593     413.465
  N      260.978     926.133     415.619
  C      260.995     926.368     416.956
  O      261.487     925.595     417.769
  C      260.382     927.622     417.387
  C      259.855     928.445     416.463
  O      256.108     933.437     416.358
  O      255.540     930.951     416.203
  H      257.174     928.100     412.597
  H      254.670     931.347     416.016
  H      261.385     925.268     415.289
  H      260.373     927.845     418.447
  H      259.387     929.393     416.750
  H      259.630     928.700     413.140
  H      257.442     929.107     415.224
  H      256.549     930.866     414.048
  H      259.056     931.830     413.016
  H      259.371     932.792     415.305
  H      257.701     933.036     414.707
  P      255.747     931.092     411.582
  C      255.135     933.601     411.995
  O      255.969     932.657     411.353
  O      254.497     930.685     412.290
  O      255.678     930.486     410.089
  H      254.727     930.373     409.876
  H      255.437     934.590     411.720
  H      255.216     933.486     413.056
  H      254.120     933.442     411.696

 6  7  8  9  10  11  12  13  14  15  16  26  31  32  33  34  35 0
 6-311+G(2d,p)
 ****
 36  37 0
 6-311+G(2d,p)
 ****
 1  2  3  4  5  17  18  19  20  21  22  23  24  25 0
 3-21G
 ****
 27  28  29  30  38  39  40  41  42  43  44  45 0
 3-21G
 ****


