%nproc=1
%NoSave
%Mem=1900MB
#P OB98/GEN NMR

erre ene a

0 1
  C     -161.254      91.503    -166.710
  O     -161.000      92.249    -165.531
  P     -161.208      91.590    -164.085
  C     -163.342      92.829    -163.364
  O     -161.937      92.698    -163.179
  C     -163.929      93.808    -162.346
  O     -163.811      93.233    -161.023
  C     -163.219      95.157    -162.326
  O     -164.184      96.182    -162.074
  C     -162.291      95.073    -161.126
  O     -162.001      96.381    -160.598
  C     -163.085      94.159    -160.191
  N     -160.524      94.213    -155.742
  C     -161.313      95.135    -156.336
  N     -161.943      95.064    -157.529
  C     -161.735      93.866    -158.101
  C     -160.955      92.826    -157.614
  C     -160.328      93.033    -156.374
  N     -159.533      92.085    -155.765
  N     -160.957      91.763    -158.498
  C     -161.734      92.149    -159.484
  N     -162.237      93.409    -159.286
  O     -159.982      91.001    -163.478
  O     -162.349      90.494    -164.304
  H     -162.858      96.789    -160.355
  H     -162.162      89.697    -163.770
  H     -161.459      96.056    -155.776
  H     -161.957      91.564    -160.365
  H     -163.815      94.723    -159.597
  H     -161.341      94.617    -161.427
  H     -162.680      95.372    -163.255
  H     -164.997      93.932    -162.558
  H     -163.802      91.847    -163.224
  H     -159.226      92.275    -154.825
  H     -159.529      91.149    -156.148
  H     -163.545      93.165    -164.386
  P     -164.141      97.448    -163.072
  C     -164.599      99.214    -161.214
  O     -165.064      98.552    -162.368
  O     -164.481      97.067    -164.474
  O     -162.637      97.958    -162.862
  H     -162.285      97.690    -161.984
  H     -165.378      99.896    -160.861
  H     -163.707      99.802    -161.450
  H     -164.373      98.495    -160.423
  H     -161.058      92.113    -167.567
  H     -162.277      91.190    -166.721
  H     -160.618      90.643    -166.732

 3  4  5  6  7  8  9  10  11  12  22  25  29  30  31  32 0
 6-311+G(2d,p)
 ****
 33  36  37 0
 6-311+G(2d,p)
 ****
 1  2  13  14  15  16  17  18  19  20  21  23  24  26 0
 3-21G
 ****
 27  28  34  35  38  39  40  41  42  43  44  45  46  47  48 0
 3-21G
 ****


