%nproc=1
%NoSave
%Mem=1900MB
#P OB98/GEN NMR

erre ene a

0 1
  C      409.085     417.074    -448.944
  O      408.582     418.057    -448.061
  H      409.806     417.544    -449.620
  H      408.263     416.668    -449.537
  H      409.584     416.272    -448.391
  P      407.751     417.546    -446.795
  C      405.516     418.030    -448.008
  O      406.306     418.255    -446.858
  C      404.297     418.958    -448.011
  O      403.252     418.358    -447.196
  C      404.577     420.362    -447.444
  O      403.852     421.322    -448.203
  C      404.024     420.290    -446.029
  O      403.657     421.576    -445.525
  C      402.852     419.343    -446.221
  N      399.166     418.916    -442.797
  C      399.190     419.584    -444.013
  N      398.058     420.231    -444.366
  N      400.231     419.598    -444.818
  C      401.267     418.864    -444.345
  C      401.378     418.172    -443.163
  C      400.228     418.187    -442.273
  O      400.161     417.638    -441.174
  N      402.608     417.588    -443.035
  C      403.254     417.930    -444.142
  N      402.473     418.704    -444.971
  O      408.469     418.277    -445.567
  O      407.718     416.064    -446.605
  H      403.570     421.494    -444.544
  H      408.883     417.612    -444.982
  H      398.350     418.946    -442.220
  H      404.269     417.655    -444.381
  H      401.949     419.854    -446.598
  H      404.771     419.851    -445.358
  H      397.207     420.224    -443.822
  H      405.645     420.619    -447.459
  H      398.038     420.700    -445.266
  H      403.902     419.019    -449.031
  H      405.180     416.994    -448.019
  H      406.119     418.213    -448.908
  P      404.561     421.896    -449.530
  C      405.854     423.814    -448.369
  O      404.856     423.471    -449.303
  O      403.384     421.879    -450.610
  O      405.736     421.089    -449.976
  H      403.543     421.175    -451.264
  H      405.945     424.879    -448.319
  H      406.788     423.391    -448.674
  H      405.587     423.433    -447.406

 6  7  8  9  10  11  12  13  14  15  26  29  33  34 0
 6-311+G(2d,p)
 ****
 36  38  39  40  41 0
 6-311+G(2d,p)
 ****
 1  2  3  4  5  16  17  18  19  20  21  22  23  24  25 0
 3-21G
 ****
 27  28  30  31  32  35  37  42  43  44  45  46  47 0
 3-21G
 ****
 48  49 0
 3-21G
 ****


