%nproc=1
%NoSave
%Mem=1900MB
#P OB98/GEN NMR

erre ene a

0 1
  C      -53.165     -84.748     -19.022
  O      -53.962     -85.829     -19.462
  P      -53.755     -87.312     -18.889
  C      -55.825     -87.369     -17.366
  O      -54.408     -87.308     -17.423
  C      -56.298     -88.458     -16.401
  O      -57.720     -88.297     -16.146
  C      -56.076     -89.892     -16.899
  O      -55.798     -90.682     -15.739
  C      -57.432     -90.251     -17.474
  O      -57.619     -91.655     -17.604
  C      -58.363     -89.546     -16.479
  N      -59.700     -89.350     -17.027
  C      -60.773     -89.703     -16.206
  O      -60.569     -90.229     -15.110
  N      -62.051     -89.507     -16.664
  C      -62.237     -89.092     -17.878
  N      -63.525     -88.911     -18.277
  C      -61.134     -88.828     -18.820
  C      -59.904     -88.961     -18.329
  O      -52.357     -87.827     -18.953
  O      -54.797     -88.188     -19.728
  H      -58.563     -91.822     -17.816
  H      -54.446     -88.365     -20.637
  H      -61.339     -88.538     -19.840
  H      -59.032     -88.788     -18.944
  H      -58.450     -90.128     -15.553
  H      -57.538     -89.808     -18.472
  H      -55.271     -89.983     -17.631
  H      -55.779     -88.310     -15.446
  H      -64.251     -89.090     -17.593
  H      -56.194     -87.605     -18.368
  H      -63.777     -88.515     -19.169
  H      -56.231     -86.394     -17.081
  P      -54.942     -92.033     -15.836
  C      -52.775     -90.673     -15.859
  O      -53.548     -91.655     -16.524
  O      -55.655     -93.190     -16.456
  O      -54.527     -92.350     -14.320
  H      -54.226     -93.274     -14.253
  H      -51.752     -90.703     -16.246
  H      -52.752     -90.856     -14.781
  H      -53.198     -89.683     -16.049
  H      -53.466     -83.854     -19.527
  H      -52.137     -84.951     -19.239
  H      -53.288     -84.620     -17.967

 3  4  5  6  7  8  9  10  11  12  13  23  27  28  29  30  32 0
 6-311+G(2d,p)
 ****
 34  35 0
 6-311+G(2d,p)
 ****
 1  2  14  15  16  17  18  19  20  21  22  24  25  26 0
 3-21G
 ****
 31  33  36  37  38  39  40  41  42  43  44  45  46 0
 3-21G
 ****


