%nproc=1
%NoSave
%Mem=1900MB
#P OB98/GEN NMR

erre ene a

0 1
  C     -185.396     201.900     515.367
  O     -184.434     200.949     514.947
  H     -186.162     201.389     515.953
  H     -185.866     202.370     514.501
  H     -184.919     202.665     515.993
  P     -183.202     201.505     514.083
  C     -183.225     199.392     512.556
  O     -183.317     200.813     512.637
  C     -184.291     198.867     511.597
  O     -185.588     199.391     511.974
  C     -184.087     199.285     510.148
  O     -183.099     198.513     509.495
  C     -185.484     199.083     509.586
  O     -185.710     197.714     509.217
  C     -186.380     199.470     510.768
  N     -190.181     202.202     508.716
  C     -189.954     200.867     508.762
  N     -188.919     200.218     509.343
  C     -188.084     201.091     509.943
  C     -188.192     202.470     509.975
  C     -189.308     203.033     509.329
  N     -189.531     204.387     509.255
  N     -187.124     203.028     510.651
  C     -186.382     202.003     511.018
  N     -186.927     200.810     510.616
  O     -181.941     200.780     514.753
  O     -183.054     202.989     514.071
  H     -185.769     197.210     510.052
  H     -181.495     201.404     515.357
  H     -190.687     200.242     508.267
  H     -185.451     202.063     511.571
  H     -187.231     198.785     510.888
  H     -185.636     199.697     508.695
  H     -183.835     200.353     510.097
  H     -184.326     197.770     511.685
  H     -183.381     198.965     513.551
  H     -182.224     199.122     512.204
  H     -190.312     204.723     508.716
  H     -188.824     205.022     509.608
  P     -181.814     199.280     508.920
  C     -182.297     198.312     506.541
  O     -182.040     199.462     507.338
  O     -180.641     198.187     509.007
  O     -181.458     200.536     509.641
  H     -179.796     198.628     509.228
  H     -182.422     198.606     505.520
  H     -183.189     197.831     506.886
  H     -181.473     197.633     506.618

 6  7  8  9  10  11  12  13  14  15  25  28  32  33  34  35 0
 6-311+G(2d,p)
 ****
 36  37  40 0
 6-311+G(2d,p)
 ****
 1  2  3  4  5  16  17  18  19  20  21  22  23  24 0
 3-21G
 ****
 26  27  29  30  31  38  39 41  42  43  44  45  46  47  48 0
 3-21G
 ****


