%nproc=1
%NoSave
%Mem=1900MB
#P OB98/GEN NMR

erre ene a

0 1
  C      127.203     365.423     360.794
  O      126.452     364.748     359.805
  H      126.584     366.214     361.223
  H      128.096     365.874     360.353
  H      127.488     364.726     361.586
  P      127.204     363.576     359.007
  C      128.001     365.263     357.227
  O      128.390     364.325     358.224
  C      129.225     365.990     356.673
  O      130.047     365.030     355.956
  C      128.877     367.119     355.697
  O      129.813     368.186     355.863
  C      129.090     366.478     354.337
  O      129.331     367.439     353.313
  C      130.261     365.542     354.630
  N      131.889     364.306     349.968
  C      132.099     365.391     350.740
  N      131.643     365.630     351.989
  C      130.947     364.574     352.447
  C      130.652     363.400     351.779
  C      131.150     363.287     350.469
  N      130.913     362.201     349.662
  N      129.874     362.577     352.570
  C      129.713     363.240     353.701
  N      130.329     364.460     353.665
  O      126.334     362.710     358.163
  O      127.987     362.824     360.183
  H      129.511     366.962     352.477
  H      128.442     363.457     360.771
  H      132.705     366.178     350.297
  H      129.153     362.889     354.564
  H      131.229     366.060     354.607
  H      128.200     365.903     354.052
  H      127.862     367.495     355.819
  H      129.827     366.360     357.512
  H      127.303     365.993     357.652
  H      131.311     362.201     348.735
  H      130.371     361.427     350.016
  H      127.490     364.713     356.431
  P      129.266     369.657     356.183
  C      128.934     370.200     353.684
  O      128.327     370.134     354.969
  O      130.293     370.651     356.610
  O      128.203     369.392     357.353
  H      128.293     370.091     358.031
  H      128.212     370.528     352.965
  H      129.295     369.231     353.410
  H      129.751     370.891     353.710

 6  7  8  9  10  11  12  13  14  15  25  28  32  33  34  35 0
 6-311+G(2d,p)
 ****
 36  39  40 0
 6-311+G(2d,p)
 ****
 1  2  3  4  5  16  17  18  19  20  21  22  23  24 0
 3-21G
 ****
 26  27  29  30  31  37  38  41  42  43  44  45  46  47 0
 3-21G
 ****
 48 0
 3-21G
 ****


