%nproc=1
%NoSave
%Mem=1900MB
#P OB98/GEN NMR

erre ene a

0 1
  C     -865.478     363.448    -494.896
  O     -866.776     364.025    -495.055
  P     -867.667     364.302    -493.748
  C     -868.415     366.753    -494.039
  O     -867.534     365.858    -493.365
  C     -867.767     367.301    -495.317
  O     -867.479     366.241    -496.255
  C     -868.660     368.269    -496.068
  O     -868.707     369.530    -495.411
  C     -868.010     368.280    -497.437
  O     -866.879     369.179    -497.462
  C     -867.523     366.823    -497.579
  N     -868.355     366.019    -498.469
  C     -867.831     365.797    -499.755
  O     -866.750     366.294    -500.081
  N     -868.557     365.038    -500.629
  C     -869.700     364.545    -500.268
  N     -870.377     363.786    -501.179
  C     -870.289     364.772    -498.934
  C     -869.568     365.531    -498.098
  O     -867.470     363.350    -492.618
  O     -869.168     364.220    -494.322
  H     -866.488     369.114    -498.350
  H     -869.753     363.898    -493.609
  H     -871.246     364.337    -498.672
  H     -869.938     365.744    -497.104
  H     -866.494     366.798    -497.968
  H     -868.694     368.612    -498.211
  H     -869.672     367.850    -496.143
  H     -866.827     367.799    -495.030
  H     -869.949     363.666    -502.088
  H     -868.667     367.579    -493.363
  H     -871.251     363.326    -500.974
  H     -869.350     366.230    -494.260
  P     -870.116     369.983    -494.768
  C     -869.272     370.521    -492.375
  O     -870.060     369.670    -493.207
  O     -871.133     368.876    -495.330
  O     -870.551     371.357    -495.146
  H     -872.003     369.294    -495.482
  H     -869.590     370.378    -491.338
  H     -869.393     371.571    -492.649
  H     -868.224     370.241    -492.465
  H     -865.020     363.330    -495.856
  H     -865.568     362.492    -494.424
  H     -864.874     364.090    -494.289

 3  4  5  6  7  8  9  10  11  12  13  23  27  28  29  30  32 0
 6-311+G(2d,p)
 ****
 34  35 0
 6-311+G(2d,p)
 ****
 1  2  14  15  16  17  18  19  20  21  22  24  25  26 0
 3-21G
 ****
 31  33  36  37  38  39  40  41  42  43  44  45  46 0
 3-21G
 ****


