%nproc=1
%NoSave
%Mem=1900MB
#P OB98/GEN NMR

erre ene a

0 1
  C     -190.518    -155.185     475.435
  O     -190.459    -156.542     475.822
  H     -189.964    -155.058     474.506
  H     -190.064    -154.559     476.208
  H     -191.556    -154.877     475.273
  P     -191.313    -156.973     477.108
  C     -189.570    -157.381     479.006
  O     -190.478    -156.480     478.391
  C     -188.851    -156.682     480.168
  O     -189.809    -156.442     481.233
  C     -187.705    -157.513     480.758
  O     -186.640    -156.635     481.142
  C     -188.332    -158.139     481.996
  O     -187.382    -158.518     482.985
  C     -189.269    -157.014     482.442
  N     -190.341    -157.493     483.318
  C     -190.304    -157.107     484.656
  O     -189.472    -156.337     485.135
  N     -191.275    -157.655     485.454
  C     -192.236    -158.543     485.068
  O     -193.058    -159.012     485.836
  C     -192.225    -158.920     483.642
  C     -191.292    -158.387     482.848
  O     -191.134    -158.567     477.152
  O     -192.746    -156.560     477.106
  H     -191.841    -159.005     476.647
  H     -187.879    -158.860     483.763
  H     -191.258    -157.386     486.433
  H     -192.968    -159.626     483.302
  H     -191.249    -158.653     481.796
  H     -188.701    -156.223     482.952
  H     -188.904    -159.033     481.714
  H     -187.325    -158.274     480.064
  H     -188.495    -155.703     479.826
  H     -188.834    -157.707     478.272
  H     -190.121    -158.251     479.369
  P     -185.543    -156.280     480.024
  C     -183.501    -157.567     481.039
  O     -184.494    -157.499     480.024
  O     -184.754    -155.076     480.723
  O     -186.150    -155.953     478.695
  H     -184.655    -155.184     481.686
  H     -182.894    -158.435     480.887
  H     -183.974    -157.626     481.997
  H     -182.888    -156.691     480.997

 6  7  8  9  10  11  12  13  14  15  16  27  31  32  33  34  35 0
 6-311+G(2d,p)
 ****
 36  37 0
 6-311+G(2d,p)
 ****
 1  2  3  4  5  17  18  19  20  21  22  23  24  25 0
 3-21G
 ****
 26  28  29  30  38  39  40  41  42  43  44  45 0
 3-21G
 ****


