%nproc=1
%NoSave
%Mem=1900MB
#P OB98/GEN NMR

erre ene a

0 1
  C      132.836    -514.791    -121.304
  O      132.550    -516.178    -121.277
  P      131.074    -516.664    -121.661
  C      130.844    -517.079    -124.216
  O      130.764    -516.148    -123.148
  C      129.563    -517.039    -125.054
  O      128.437    -517.481    -124.236
  C      129.216    -515.644    -125.595
  O      128.590    -515.821    -126.875
  C      128.191    -515.149    -124.593
  O      127.389    -514.091    -125.088
  C      127.431    -516.453    -124.320
  N      126.620    -516.393    -123.105
  C      125.248    -516.574    -123.245
  O      124.685    -516.774    -124.320
  N      124.512    -516.448    -122.096
  C      124.986    -516.084    -120.871
  O      124.257    -515.876    -119.909
  C      126.445    -515.908    -120.782
  C      127.182    -516.069    -121.885
  O      130.136    -515.749    -120.739
  O      130.819    -518.117    -121.445
  H      126.907    -513.708    -124.335
  H      129.839    -516.246    -119.956
  H      123.515    -516.587    -122.176
  H      126.860    -515.638    -119.820
  H      128.257    -515.925    -121.852
  H      126.789    -516.700    -125.172
  H      128.705    -514.792    -123.693
  H      130.078    -514.977    -125.683
  H      129.664    -517.754    -125.880
  H      130.973    -518.083    -123.810
  H      131.718    -516.852    -124.835
  P      128.764    -514.656    -127.965
  C      131.172    -515.147    -128.854
  O      130.331    -514.342    -128.057
  O      128.165    -513.406    -127.160
  O      128.063    -514.928    -129.254
  H      128.462    -513.376    -126.237
  H      130.659    -515.507    -129.747
  H      131.514    -516.005    -128.266
  H      132.041    -514.559    -129.158
  H      133.857    -514.632    -121.025
  H      132.194    -514.281    -120.616
  H      132.673    -514.412    -122.291

 3  4  5  6  7  8  9  10  11  12  13  23  28  29  30  31  32 0
 6-311+G(2d,p)
 ****
 33  34 0
 6-311+G(2d,p)
 ****
 1  2  14  15  16  17  18  19  20  21  22  24  25  26 0
 3-21G
 ****
 27  35  36  37  38  39  40  41  42  43  44  45 0
 3-21G
 ****


