%nproc=1
%NoSave
%Mem=1900MB
#P OB98/GEN NMR

erre ene a

0 1
  C      -17.341      15.874     109.182
  O      -18.528      15.144     109.424
  H      -17.172      16.553     110.021
  H      -17.443      16.467     108.269
  H      -16.482      15.203     109.098
  P      -18.927      13.964     108.416
  C      -20.465      15.417     106.938
  O      -19.270      14.648     107.009
  C      -20.378      16.406     105.779
  O      -19.374      17.409     106.053
  C      -19.976      15.770     104.454
  O      -21.061      15.074     103.870
  C      -19.512      16.991     103.677
  O      -20.630      17.704     103.125
  C      -18.818      17.820     104.781
  N      -17.362      17.676     104.770
  C      -16.653      18.611     104.021
  O      -17.192      19.502     103.366
  N      -15.290      18.468     104.028
  C      -14.595      17.442     104.599
  O      -13.378      17.311     104.499
  C      -15.397      16.471     105.356
  C      -16.722      16.629     105.407
  O      -19.952      13.003     108.918
  O      -17.532      13.230     108.126
  H      -20.258      18.365     102.509
  H      -17.501      12.387     108.617
  H      -14.760      19.128     103.480
  H      -14.881      15.650     105.835
  H      -17.331      15.921     105.955
  H      -19.057      18.885     104.664
  H      -18.857      16.729     102.847
  H      -19.121      15.100     104.603
  H      -21.347      16.918     105.686
  H      -20.586      15.966     107.877
  H      -21.317      14.740     106.808
  P      -20.807      13.674     103.137
  C      -20.486      14.781     100.839
  O      -19.902      13.957     101.842
  O      -22.028      12.853     102.888
  O      -19.799      12.907     104.116
  H      -20.215      12.079     104.425
  H      -19.797      14.900     100.029
  H      -20.717      15.740     101.255
  H      -21.384      14.323     100.479

 6  7  8  9  10  11  12  13  14  15  16  26  31  32  33  34  35 0
 6-311+G(2d,p)
 ****
 36  37 0
 6-311+G(2d,p)
 ****
 1  2  3  4  5  17  18  19  20  21  22  23  24  25 0
 3-21G
 ****
 27  28  29  30  38  39  40  41  42  43  44  45 0
 3-21G
 ****


