%nproc=1
%NoSave
%Mem=1900MB
#P OB98/GEN NMR

erre ene a

0 1
  C     -191.989     394.602     305.750
  O     -192.657     395.782     305.351
  H     -192.699     393.958     306.275
  H     -191.170     394.849     306.431
  H     -191.602     394.065     304.879
  P     -191.836     396.789     304.405
  C     -191.995     395.394     302.186
  O     -192.391     396.536     302.921
  C     -192.023     395.682     300.684
  O     -191.240     394.668     300.002
  C     -193.429     395.667     300.081
  O     -193.491     396.659     299.053
  C     -193.530     394.286     299.455
  O     -194.506     394.235     298.420
  C     -192.079     394.059     298.999
  N     -191.765     392.643     298.822
  C     -191.515     392.215     297.515
  O     -191.578     393.011     296.579
  N     -191.242     390.890     297.291
  C     -191.281     390.048     298.279
  N     -191.027     388.746     297.988
  C     -191.584     390.448     299.668
  C     -191.804     391.747     299.866
  O     -190.385     396.114     304.390
  O     -191.851     398.210     304.858
  H     -194.496     393.337     298.025
  H     -190.409     395.150     304.269
  H     -191.617     389.710     300.455
  H     -192.027     392.129     300.854
  H     -191.890     394.575     298.049
  H     -193.807     393.548     300.216
  H     -194.211     395.855     300.824
  H     -191.528     396.642     300.504
  H     -190.847     388.511     297.020
  H     -192.659     394.551     302.407
  H     -191.084     387.998     298.667
  H     -190.983     395.121     302.502
  P     -194.602     397.804     299.126
  C     -193.665     399.486     300.851
  O     -193.902     399.203     299.477
  O     -195.816     397.481     299.930
  O     -195.002     398.007     297.579
  H     -195.972     398.120     297.534
  H     -193.197     400.444     300.942
  H     -193.025     398.735     301.265
  H     -194.595     399.492     301.380

 6  7  8  9  10  11  12  13  14  15  16  26  30  31  32  33  35 0
 6-311+G(2d,p)
 ****
 37  38 0
 6-311+G(2d,p)
 ****
 1  2  3  4  5  17  18  19  20  21  22  23  24  25 0
 3-21G
 ****
 27  28  29  34  36  39  40  41  42  43  44  45  46 0
 3-21G
 ****


