%nproc=1
%NoSave
%Mem=1900MB
#P OB98/GEN NMR

erre ene a

0 1
  C     -221.671    -893.700     194.474
  O     -221.982    -894.550     195.547
  P     -222.313    -893.970     197.005
  C     -222.738    -896.390     197.787
  O     -222.042    -895.170     198.033
  C     -222.243    -897.500     198.718
  O     -220.880    -897.860     198.400
  C     -222.202    -897.080     200.187
  O     -223.426    -896.820     200.844
  C     -221.324    -898.170     200.777
  O     -222.077    -899.360     201.020
  C     -220.293    -898.420     199.623
  N     -218.982    -897.850     199.932
  C     -218.069    -898.690     200.542
  O     -218.308    -899.870     200.817
  N     -216.864    -898.140     200.841
  C     -216.500    -896.820     200.662
  O     -215.412    -896.380     201.005
  C     -217.515    -895.960     200.037
  C     -218.702    -896.510     199.698
  O     -223.640    -893.310     197.128
  O     -221.068    -893.000     197.283
  H     -221.506    -900.000     201.476
  H     -220.191    -893.430     197.276
  H     -216.183    -898.740     201.292
  H     -217.256    -894.930     199.868
  H     -219.468    -895.890     199.248
  H     -220.178    -899.510     199.446
  H     -220.881    -897.880     201.733
  H     -221.630    -896.150     200.271
  H     -222.855    -898.370     198.559
  H     -222.545    -896.700     196.745
  H     -223.821    -896.230     197.904
  P     -223.567    -895.880     202.115
  C     -225.467    -897.440     202.954
  O     -224.303    -896.700     203.270
  O     -224.031    -894.460     201.869
  O     -222.059    -895.820     202.649
  H     -221.886    -894.960     203.079
  H     -225.856    -897.900     203.869
  H     -225.245    -898.210     202.244
  H     -226.236    -896.770     202.546
  H     -221.485    -894.285     193.598
  H     -220.799    -893.128     194.713
  H     -222.493    -893.039     194.293

 3  4  5  6  7  8  9  10  11  12  13  23  28  29  30  31  32 0
 6-311+G(2d,p)
 ****
 33  34 0
 6-311+G(2d,p)
 ****
 1  2  14  15  16  17  18  19  20  21  22  24  25  26  27 0
 3-21G
 ****
 35  36  37  38  39  40  41  42  43  44  45 0
 3-21G
 ****


