%nproc=1
%NoSave
%Mem=1900MB
#P OB98/GEN NMR

erre ene a

0 1
  C      113.111     133.488      17.853
  O      113.297     133.096      16.492
  P      112.635     133.966      15.322
  C      111.928     132.246      13.524
  O      112.874     133.234      13.916
  C      112.539     131.327      12.463
  O      113.223     130.202      13.066
  C      111.493     130.700      11.547
  O      110.835     131.565      10.646
  C      112.248     129.521      10.957
  O      113.056     129.915       9.847
  C      113.134     129.090      12.148
  N      112.636     127.887      12.816
  C      113.127     126.674      12.343
  O      113.900     126.586      11.391
  N      112.666     125.553      12.979
  C      111.758     125.528      13.999
  O      111.364     124.491      14.519
  C      111.257     126.837      14.440
  C      111.710     127.940      13.841
  O      112.948     135.424      15.342
  O      111.061     133.734      15.562
  H      113.782     129.264       9.773
  H      110.609     134.590      15.420
  H      113.018     124.667      12.655
  H      110.531     126.855      15.242
  H      111.354     128.915      14.151
  H      114.157     128.882      11.810
  H      111.564     128.746      10.595
  H      110.701     130.280      12.184
  H      113.279     131.895      11.895
  H      111.028     132.728      13.135
  H      111.616     131.680      14.408
  P      109.243     131.748      10.607
  C      108.583     131.236       8.153
  O      108.823     132.220       9.134
  O      108.606     132.451      11.760
  O      108.749     130.217      10.611
  H      107.903     130.169      11.095
  H      108.328     131.736       7.213
  H      107.747     130.598       8.448
  H      109.480     130.629       7.992
  H      113.618     132.799      18.495
  H      112.066     133.488      18.085
  H      113.509     134.471      17.999

 3  4  5  6  7  8  9  10  11  12  13  23  28  29  30  31  32 0
 6-311+G(2d,p)
 ****
 33  34 0
 6-311+G(2d,p)
 ****
 1  2  14  15  16  17  18  19  20  21  22  24  25  26  27 0
 3-21G
 ****
 35  36  37  38  39  40  41  42  43  44  45 0
 3-21G
 ****


