%nproc=1
%NoSave
%Mem=1900MB
#P OB98/GEN NMR

erre ene a

0 1
  C      243.398    -275.614    -566.673
  O      244.722    -275.735    -566.160
  P      245.054    -274.976    -564.784
  C      245.965    -272.689    -565.706
  O      244.925    -273.399    -565.055
  C      245.589    -271.210    -565.898
  O      245.430    -270.603    -564.590
  C      246.629    -270.355    -566.615
  O      245.998    -269.166    -567.095
  C      247.575    -270.010    -565.486
  O      248.402    -268.893    -565.809
  C      246.610    -269.805    -564.297
  N      247.174    -270.201    -562.989
  C      247.919    -269.261    -562.280
  O      248.128    -268.111    -562.663
  N      248.460    -269.691    -561.096
  C      248.303    -270.928    -560.549
  O      248.884    -271.288    -559.528
  C      247.401    -271.836    -561.270
  C      246.901    -271.441    -562.443
  O      246.625    -275.215    -564.595
  O      244.264    -275.470    -563.618
  H      249.090    -269.228    -566.434
  H      246.782    -275.877    -563.901
  H      249.051    -269.042    -560.597
  H      247.196    -272.803    -560.826
  H      246.242    -272.112    -562.996
  H      246.303    -268.752    -564.212
  H      248.241    -270.856    -565.284
  H      247.144    -270.864    -567.437
  H      244.622    -271.147    -566.411
  H      246.181    -273.154    -566.670
  H      246.884    -272.755    -565.110
  P      245.624    -269.081    -568.651
  C      247.946    -268.393    -569.516
  O      246.976    -269.418    -569.453
  O      244.899    -267.856    -569.090
  O      244.749    -270.409    -568.878
  H      244.225    -270.322    -569.691
  H      248.932    -268.847    -569.597
  H      247.914    -267.752    -568.625
  H      247.765    -267.782    -570.406
  H      243.318    -276.165    -567.587
  H      243.180    -274.583    -566.858
  H      242.702    -276.003    -565.959

 3  4  5  6  7  8  9  10  11  12  13  23  28  29  30  31  32 0
 6-311+G(2d,p)
 ****
 33  34 0
 6-311+G(2d,p)
 ****
 1  2  14  15  16  17  18  19  20  21  22  24  25  26  27 0
 3-21G
 ****
 35  36  37  38  39  40  41  42  43  44  45 0
 3-21G
 ****


