%nproc=1
%NoSave
%Mem=1900MB
#P OB98/GEN NMR

erre ene a

0 1
  C     -231.313     271.336     375.898
  O     -231.571     272.287     376.913
  P     -232.245     273.698     376.569
  C     -231.475     275.998     375.742
  O     -231.135     274.627     375.880
  C     -230.259     276.834     375.337
  O     -229.349     276.938     376.468
  C     -229.469     276.268     374.149
  O     -229.035     277.379     373.361
  C     -228.288     275.591     374.817
  O     -227.189     275.432     373.932
  C     -228.046     276.532     375.999
  N     -227.272     275.911     377.059
  C     -225.883     276.077     377.014
  O     -225.361     276.615     376.037
  N     -225.130     275.618     378.067
  C     -225.695     274.889     378.982
  N     -224.927     274.510     380.044
  C     -227.113     274.483     378.928
  C     -227.848     275.060     377.974
  O     -232.973     274.343     377.702
  O     -233.247     273.373     375.359
  H     -234.141     273.700     375.585
  H     -226.480     274.938     374.389
  H     -227.503     273.777     379.642
  H     -228.906     274.845     377.871
  H     -227.525     277.440     375.668
  H     -228.581     274.598     375.171
  H     -230.070     275.594     373.530
  H     -230.605     277.850     375.111
  H     -223.967     274.839     380.066
  H     -231.847     276.355     376.705
  H     -225.336     274.229     380.932
  H     -232.280     276.108     375.008
  P     -229.419     277.404     371.799
  C     -228.119     276.587     369.703
  O     -228.482     276.342     371.044
  O     -228.782     278.802     371.331
  O     -230.877     277.374     371.471
  H     -229.260     279.122     370.544
  H     -227.549     275.734     369.333
  H     -227.497     277.483     369.634
  H     -229.011     276.708     369.081
  H     -230.863     270.467     376.330
  H     -230.649     271.759     375.174
  H     -232.232     271.063     375.423

 3  4  5  6  7  8  9  10  11  12  13  24  27  28  29  30  32 0
 6-311+G(2d,p)
 ****
 34  35 0
 6-311+G(2d,p)
 ****
 1  2  14  15  16  17  18  19  20  21  22  23  25  26 0
 3-21G
 ****
 31  33  36  37  38  39  40  41  42  43  44  45  46 0
 3-21G
 ****


