%nproc=1
%NoSave
%Mem=1900MB
#P OB98/GEN NMR

erre ene a

0 1
  C     -195.542      -7.187     -36.030
  O     -194.422      -7.810     -35.397
  P     -193.203      -8.243     -36.355
  C     -191.249      -7.003     -35.161
  O     -192.107      -7.071     -36.293
  C     -189.982      -6.220     -35.490
  O     -189.172      -6.924     -36.448
  C     -190.234      -4.853     -36.116
  O     -190.575      -3.885     -35.137
  C     -188.871      -4.549     -36.725
  O     -187.994      -4.017     -35.716
  C     -188.395      -5.940     -37.174
  N     -187.546      -4.132     -41.835
  C     -187.218      -3.597     -40.607
  N     -186.544      -2.427     -40.619
  N     -187.523      -4.160     -39.462
  C     -188.170      -5.339     -39.603
  C     -188.554      -5.972     -40.764
  C     -188.238      -5.324     -42.019
  O     -188.531      -5.740     -43.133
  N     -189.183      -7.160     -40.501
  C     -189.159      -7.265     -39.188
  N     -188.566      -6.173     -38.595
  O     -193.827      -8.087     -37.821
  O     -192.698      -9.625     -36.104
  H     -187.950      -4.679     -34.998
  H     -193.374      -8.689     -38.442
  H     -187.294      -3.657     -42.682
  H     -189.546      -8.098     -38.623
  H     -187.342      -6.108     -36.925
  H     -188.923      -3.809     -37.525
  H     -186.213      -1.976     -41.460
  H     -190.993      -4.920     -36.905
  H     -186.262      -2.036     -39.727
  H     -189.401      -6.103     -34.564
  H     -190.980      -8.010     -34.840
  H     -191.794      -6.538     -34.331
  P     -191.994      -3.149     -35.294
  C     -193.315      -4.222     -33.338
  O     -193.078      -4.185     -34.728
  O     -192.234      -3.163     -36.880
  O     -192.041      -1.768     -34.730
  H     -192.785      -2.402     -37.139
  H     -193.370      -3.213     -32.915
  H     -192.515      -4.781     -32.842
  H     -194.265      -4.729     -33.153
  H     -196.280      -6.948     -35.294
  H     -195.962      -7.856     -36.752
  H     -195.222      -6.290     -36.519

 3  4  5  6  7  8  9  10  11  12  23  26  30  31  33  0
 6-311+G(2d,p)
 ****
 35  36  37  38 0
 6-311+G(2d,p)
 ****
 1  2  13  14  15  16  17  18  19  20  21  22  24  25  27  28  29 0
 3-21G
 ****
 32  34  39  40  41  42  43  44  45  46  47  48  49 0
 3-21G
 ****


