%nproc=1
%NoSave
%Mem=1900MB
#P OB98/GEN NMR

erre ene a

0 1
  C      392.585    -259.318    -122.751
  O      393.378    -259.440    -121.589
  H      392.836    -258.376    -123.245
  H      391.529    -259.299    -122.472
  H      392.767    -260.141    -123.447
  P      393.547    -260.884    -120.921
  C      395.687    -261.420    -122.263
  O      394.355    -261.812    -121.957
  C      396.525    -262.596    -122.766
  O      397.737    -262.117    -123.386
  C      396.964    -263.525    -121.632
  O      396.016    -264.503    -121.247
  C      398.210    -264.174    -122.227
  O      397.861    -265.315    -123.030
  C      398.791    -263.058    -123.100
  N      403.734    -263.204    -121.822
  C      402.957    -264.187    -122.398
  N      403.561    -265.379    -122.611
  N      401.700    -264.017    -122.722
  C      401.210    -262.809    -122.365
  C      401.877    -261.760    -121.775
  C      403.285    -261.939    -121.473
  O      404.017    -261.100    -120.954
  N      401.043    -260.686    -121.568
  C      399.862    -261.111    -121.959
  N      399.914    -262.385    -122.481
  O      392.070    -261.504    -120.982
  O      394.073    -260.883    -119.518
  H      397.422    -264.996    -123.841
  H      391.954    -262.159    -120.271
  H      404.702    -263.382    -121.623
  H      398.945    -260.533    -121.917
  H      399.141    -263.447    -124.067
  H      398.890    -264.532    -121.449
  H      404.486    -265.595    -122.275
  H      397.268    -262.938    -120.758
  H      402.964    -266.193    -122.781
  H      395.963    -263.139    -123.538
  H      396.117    -261.023    -121.341
  H      395.684    -260.611    -122.997
  P      396.169    -265.262    -119.846
  C      394.352    -264.031    -118.449
  O      395.724    -264.227    -118.704
  O      397.757    -265.367    -119.671
  O      395.516    -266.599    -119.778
  H      398.073    -266.237    -119.971
  H      394.234    -263.314    -117.664
  H      393.908    -264.959    -118.155
  H      393.872    -263.671    -119.335

 6  7  8  9  10  11  12  13  14  15  26  29  33  34 0
 6-311+G(2d,p)
 ****
 36  38  39  40  41 0
 6-311+G(2d,p)
 ****
 1  2  3  4  5  16  17  18  19  20  21  22  23  24  25 0
 3-21G
 ****
 27  28  30  31  32  35  37  42  43  44  45  46  47 0
 3-21G
 ****
 48  49 0
 3-21G
 ****


