%nproc=1
%NoSave
%Mem=1900MB
#P OB98/GEN NMR

erre ene a

0 1
  C      369.456    -220.380     186.703
  O      368.224    -219.651     186.645
  P      367.514    -219.485     185.219
  C      368.610    -217.147     184.904
  O      368.367    -218.432     184.358
  C      369.299    -216.251     183.869
  O      370.669    -216.651     183.639
  C      368.627    -216.268     182.501
  O      367.517    -215.383     182.445
  C      369.748    -215.748     181.615
  O      369.821    -214.311     181.714
  C      370.987    -216.391     182.250
  N      373.681    -218.396     178.467
  C      373.520    -217.077     178.847
  N      374.181    -216.156     178.108
  N      372.778    -216.695     179.850
  C      372.194    -217.725     180.508
  C      372.276    -219.069     180.230
  C      373.086    -219.479     179.105
  O      373.256    -220.631     178.716
  N      371.534    -219.807     181.113
  C      371.018    -218.914     181.939
  N      371.378    -217.633     181.601
  O      366.191    -218.654     185.576
  O      367.193    -220.772     184.538
  H      370.475    -214.019     181.046
  H      365.489    -218.856     184.929
  H      374.263    -218.635     177.683
  H      370.388    -219.147     182.785
  H      371.859    -215.730     182.228
  H      369.591    -215.984     180.559
  H      374.807    -216.383     177.353
  H      368.355    -217.290     182.206
  H      374.101    -215.185     178.390
  H      369.297    -215.220     184.252
  H      369.231    -217.221     185.800
  H      367.660    -216.716     185.237
  P      366.093    -215.936     182.937
  C      366.143    -217.252     180.698
  O      365.811    -217.256     182.071
  O      365.070    -214.856     182.347
  O      365.954    -216.078     184.413
  H      364.297    -214.771     182.936
  H      366.032    -218.267     180.314
  H      367.175    -216.928     180.551
  H      365.466    -216.592     180.148
  H      369.807    -220.407     187.713
  H      370.185    -219.899     186.084
  H      369.296    -221.379     186.355

 3  4  5  6  7  8  9  10  11  12  23  26  30  31 0
 6-311+G(2d,p)
 ****
 33  35  36  37  38 0
 6-311+G(2d,p)
 ****
 1  2  13  14  15  16  17  18  19  20  21  22  24  25 0
 3-21G
 ****
 27  28  29  32  34  39  40  41  42  43  44  45  46  47  48  49 0
 3-21G
 ****


