%nproc=1
%NoSave
%Mem=1900MB
#P OB98/GEN NMR

erre ene a

0 1
  C      333.833     -15.013    -322.987
  O      333.324     -14.491    -324.196
  H      334.277     -15.992    -323.189
  H      333.032     -15.137    -322.255
  H      334.608     -14.355    -322.584
  P      332.555     -13.086    -324.167
  C      330.235     -13.882    -324.973
  O      331.009     -13.410    -323.874
  C      329.014     -14.655    -324.463
  O      329.498     -15.795    -323.708
  C      328.125     -13.809    -323.540
  O      326.757     -13.793    -323.941
  C      328.446     -14.347    -322.152
  O      327.413     -14.185    -321.201
  C      328.840     -15.803    -322.427
  N      329.705     -16.388    -321.405
  C      329.088     -16.957    -320.295
  O      327.875     -17.030    -320.117
  N      329.937     -17.477    -319.352
  C      331.299     -17.475    -319.402
  O      332.005     -17.963    -318.530
  C      331.894     -16.840    -320.591
  C      331.080     -16.331    -321.522
  O      332.795     -12.193    -325.337
  O      333.042     -12.407    -322.800
  H      327.783     -14.392    -320.318
  H      333.713     -11.725    -322.996
  H      329.501     -17.903    -318.548
  H      332.971     -16.810    -320.661
  H      331.482     -15.859    -322.413
  H      327.951     -16.433    -322.507
  H      329.321     -13.809    -321.768
  H      328.410     -12.753    -323.584
  H      328.453     -15.042    -325.322
  H      330.873     -14.536    -325.577
  H      329.908     -13.035    -325.584
  P      325.923     -12.474    -324.273
  C      324.272     -12.967    -322.297
  O      325.124     -12.043    -322.961
  O      325.156     -12.502    -325.553
  O      327.065     -11.339    -324.417
  H      326.741     -10.704    -325.084
  H      323.829     -12.495    -321.445
  H      324.843     -13.814    -321.978
  H      323.503     -13.288    -322.968

 6  7  8  9  10  11  12  13  14  15  16  26  31  32  33  34  35 0
 6-311+G(2d,p)
 ****
 36  37 0
 6-311+G(2d,p)
 ****
 1  2  3  4  5  17  18  19  20  21  22  23  24  25 0
 3-21G
 ****
 27  28  29  30  38  39  40  41  42  43  44  45 0
 3-21G
 ****


