%nproc=1
%NoSave
%Mem=1900MB
#P OB98/GEN NMR

erre ene a

0 1
  C      286.684    -899.191     494.117
  O      287.840    -898.601     493.547
  P      287.697    -897.981     492.067
  C      287.035    -895.571     492.874
  O      286.640    -896.761     492.212
  C      287.355    -894.491     491.857
  O      286.234    -894.271     490.982
  C      287.677    -893.141     492.473
  O      289.024    -893.091     492.910
  C      287.382    -892.191     491.316
  O      288.478    -892.151     490.386
  C      286.147    -892.851     490.679
  N      281.136    -892.901     490.002
  C      282.145    -893.431     489.219
  N      281.753    -894.111     488.116
  N      283.419    -893.311     489.498
  C      283.643    -892.591     490.609
  C      282.735    -891.991     491.463
  C      281.343    -892.191     491.191
  O      280.410    -891.821     491.888
  N      283.360    -891.361     492.504
  C      284.648    -891.551     492.283
  N      284.883    -892.321     491.154
  O      286.864    -899.111     491.290
  O      288.976    -897.621     491.397
  H      289.221    -891.651     490.795
  H      287.472    -899.661     490.755
  H      280.167    -893.041     489.757
  H      285.458    -891.191     492.893
  H      286.135    -892.751     489.590
  H      287.221    -891.161     491.647
  H      280.790    -894.211     487.834
  H      286.997    -892.921     493.303
  H      282.484    -894.501     487.536
  H      288.189    -894.841     491.238
  H      287.932    -895.781     493.493
  H      286.228    -895.261     493.543
  P      289.318    -893.071     494.485
  C      290.788    -895.201     494.671
  O      289.546    -894.581     494.955
  O      287.882    -892.701     495.106
  O      290.381    -892.101     494.910
  H      288.023    -892.121     495.903
  H      290.990    -895.951     495.441
  H      291.609    -894.471     494.648
  H      290.737    -895.701     493.704
  H      286.917    -899.560     495.094
  H      286.355    -900.000     493.499
  H      285.908    -898.458     494.188

 3  4  5  6  7  8  9  10  11  12  23  26  30  31 0
 6-311+G(2d,p)
 ****
 33  35  36  37  38 0
 6-311+G(2d,p)
 ****
 1  2  13  14  15  16  17  18  19  20  21  22  24  25 0
 3-21G
 ****
 27  28  29  32  34  39  40  41  42  43  44  45  46  47  48  49 0
 3-21G
 ****


