%nproc=1
%NoSave
%Mem=1900MB
#P OB98/GEN NMR

erre ene a

0 1
  C      234.031      22.544      56.940
  O      234.683      21.394      56.391
  P      234.059      20.828      55.022
  C      236.440      20.429      54.077
  O      235.159      19.874      54.336
  C      237.379      19.371      53.500
  O      237.597      18.291      54.455
  C      236.872      18.733      52.186
  O      238.039      18.474      51.366
  C      236.265      17.437      52.683
  O      236.040      16.478      51.663
  C      237.291      17.059      53.754
  N      236.146      12.100      54.254
  C      236.561      12.827      53.188
  N      236.848      14.150      53.143
  C      236.647      14.730      54.345
  C      236.218      14.112      55.513
  C      235.951      12.727      55.441
  N      235.499      11.993      56.499
  N      236.112      15.047      56.538
  C      236.416      16.202      55.968
  N      236.827      16.044      54.666
  O      234.008      22.110      54.060
  O      232.703      20.195      55.197
  H      235.301      16.789      51.090
  H      233.111      22.499      54.051
  H      236.698      12.276      52.269
  H      236.355      17.169      56.449
  H      238.221      16.684      53.310
  H      235.288      17.647      53.148
  H      236.177      19.366      51.624
  H      238.361      19.843      53.328
  H      236.865      20.835      54.994
  H      235.329      11.008      56.354
  H      235.333      12.421      57.403
  H      236.322      21.290      53.388
  P      237.827      18.167      49.810
  C      239.948      19.557      49.374
  O      239.306      18.306      49.180
  O      237.152      19.551      49.335
  O      237.046      16.948      49.471
  H      237.664      20.325      49.642
  H      240.962      19.482      48.982
  H      240.005      19.787      50.445
  H      239.399      20.351      48.848
  H      234.523      22.836      57.844
  H      233.009      22.308      57.151
  H      234.073      23.348      56.236

 3  4  5  6  7  8  9  10  11  12  22  25  29  30  31  32 0
 6-311+G(2d,p)
 ****
 33  36  37 0
 6-311+G(2d,p)
 ****
 1  2  13  14  15  16  17  18  19  20  21  23  24  26 0
 3-21G
 ****
 27  28  34  35  38  39  40  41  42  43  44  45  46  47  48 0
 3-21G
 ****


