%nproc=1
%NoSave
%Mem=1900MB
#P OB98/GEN NMR

erre ene a

0 1
  C      -95.722     -97.001       2.812
  O      -96.848     -96.265       3.250
  H      -94.824     -96.396       2.965
  H      -95.818     -97.227       1.747
  H      -95.625     -97.929       3.382
  P      -98.234     -97.063       3.327
  C      -97.457     -97.848       5.705
  O      -98.077     -98.183       4.471
  C      -97.862     -98.848       6.784
  O      -97.230     -98.532       8.040
  C      -99.345     -98.841       7.116
  O     -100.132     -99.427       6.103
  C      -99.346     -99.630       8.418
  O      -99.368    -101.043       8.181
  C      -98.004     -99.203       9.062
  N      -98.209     -98.375      10.235
  C      -97.253     -98.525      11.249
  O      -96.311     -99.303      11.099
  N      -97.415     -97.820      12.412
  C      -98.450     -97.054      12.564
  N      -98.567     -96.408      13.755
  C      -99.480     -96.869      11.522
  C      -99.300     -97.554      10.393
  O      -98.215     -97.918       1.976
  O      -99.442     -96.205       3.490
  H     -100.298    -101.273       7.978
  H      -97.384     -98.399       1.828
  H     -100.318     -96.209      11.693
  H     -100.007     -97.477       9.575
  H      -97.425    -100.086       9.363
  H     -100.220     -99.396       9.030
  H      -99.677     -97.818       7.337
  H      -97.529     -99.846       6.467
  H      -97.868     -96.606      14.462
  H      -97.727     -96.831       6.008
  H      -99.367     -95.851      14.015
  H      -96.374     -97.871       5.550
  P     -101.706     -99.647       6.295
  C     -102.796     -97.535       5.300
  O     -102.358     -98.189       6.486
  O     -102.090    -100.632       7.347
  O     -102.199    -100.040       4.823
  H     -102.028     -99.368       4.141
  H     -103.209     -96.580       5.551
  H     -103.543     -98.131       4.819
  H     -101.966     -97.402       4.639

 6  7  8  9  10  11  12  13  14  15  16  26  30  31  32  33  35 0
 6-311+G(2d,p)
 ****
 37  38 0
 6-311+G(2d,p)
 ****
 1  2  3  4  5  17  18  19  20  21  22  23  24  25 0
 3-21G
 ****
 27  28  29  34  36  39  40  41  42  43  44  45  46 0
 3-21G
 ****


