%nproc=1
%NoSave
%Mem=1900MB
#P OB98/GEN NMR

erre ene a

0 1
  C     -816.744    -677.628    -899.289
  O     -816.675    -677.065    -897.979
  P     -815.579    -675.947    -897.679
  C     -817.164    -674.514    -896.209
  O     -815.938    -675.224    -896.289
  C     -817.362    -673.869    -894.849
  O     -817.235    -674.862    -893.809
  C     -816.344    -672.782    -894.509
  O     -816.621    -671.427    -894.899
  C     -816.361    -672.813    -892.979
  O     -817.467    -672.003    -892.489
  C     -816.614    -674.270    -892.629
  N     -813.268    -675.236    -888.889
  C     -814.380    -674.484    -888.939
  N     -815.219    -674.264    -889.969
  C     -814.816    -674.972    -891.029
  C     -813.704    -675.783    -891.139
  C     -812.897    -675.912    -890.019
  N     -811.760    -676.676    -889.969
  N     -813.605    -676.335    -892.449
  C     -814.625    -675.824    -893.079
  N     -815.393    -675.002    -892.279
  O     -815.251    -675.014    -898.819
  O     -814.292    -676.840    -897.289
  H     -817.375    -671.985    -891.499
  H     -813.490    -676.390    -897.649
  H     -814.641    -673.959    -888.009
  H     -814.854    -676.015    -894.139
  H     -817.321    -674.417    -891.809
  H     -815.464    -672.384    -892.539
  H     -815.339    -673.069    -894.859
  H     -818.374    -673.449    -894.789
  H     -817.975    -675.214    -896.409
  H     -811.207    -676.678    -889.109
  H     -811.443    -677.122    -890.829
  H     -817.186    -673.812    -897.049
  P     -815.642    -670.649    -895.909
  C     -817.818    -669.990    -897.299
  O     -816.612    -669.575    -896.629
  O     -814.870    -671.497    -896.849
  O     -814.783    -669.719    -894.939
  H     -815.274    -669.041    -894.489
  H     -818.403    -669.105    -897.529
  H     -818.394    -670.644    -896.629
  H     -817.555    -670.516    -898.219
  H     -817.526    -678.357    -899.323
  H     -815.811    -678.095    -899.527
  H     -816.947    -676.854    -900.000

 3  4  5  6  7  8  9  10  11  12  22  25  29  30  31  32 0
 6-311+G(2d,p)
 ****
 33  36  37 0
 6-311+G(2d,p)
 ****
 1  2  13  14  15  16  17  18  19  20  21  23  24  26 0
 3-21G
 ****
 27  28  34  35  38  39  40  41  42  43  44  45  46  47  48 0
 3-21G
 ****


