%nproc=1
%NoSave
%Mem=1900MB
#P OB98/GEN NMR

erre ene a

0 1
  C     -143.919     -87.101      -0.346
  O     -144.912     -87.546      -1.245
  H     -142.939     -87.274      -0.796
  H     -143.983     -87.669       0.587
  H     -144.025     -86.035      -0.136
  P     -146.434     -87.125      -0.985
  C     -146.138     -85.049      -2.490
  O     -146.531     -85.540      -1.217
  C     -147.078     -85.565      -3.586
  O     -148.386     -84.965      -3.405
  C     -146.591     -85.157      -4.981
  O     -147.007     -86.078      -5.985
  C     -147.295     -83.828      -5.207
  O     -147.424     -83.491      -6.587
  C     -148.627     -84.068      -4.502
  N     -152.940     -81.408      -3.955
  C     -152.706     -82.548      -4.699
  N     -153.763     -83.046      -5.383
  N     -151.540     -83.132      -4.781
  C     -150.561     -82.486      -4.104
  C     -150.665     -81.337      -3.352
  C     -151.970     -80.719      -3.240
  O     -152.226     -79.696      -2.615
  N     -149.452     -80.975      -2.821
  C     -148.617     -81.897      -3.254
  N     -149.247     -82.851      -4.015
  O     -146.593     -87.251       0.604
  O     -147.463     -87.939      -1.708
  H     -148.214     -83.951      -6.927
  H     -147.531     -87.360       0.842
  H     -153.863     -81.014      -3.902
  H     -147.557     -81.930      -3.033
  H     -149.342     -84.553      -5.179
  H     -146.699     -83.042      -4.737
  H     -154.614     -82.518      -5.502
  H     -145.511     -85.041      -5.032
  H     -153.542     -83.675      -6.160
  H     -147.209     -86.648      -3.489
  H     -145.117     -85.395      -2.665
  H     -146.113     -83.958      -2.485
  P     -146.004     -86.402      -7.191
  C     -144.756     -88.613      -6.444
  O     -144.744     -87.217      -6.644
  O     -145.398     -84.975      -7.574
  O     -146.646     -87.072      -8.366
  H     -145.666     -84.722      -8.477
  H     -143.803     -88.929      -6.074
  H     -144.959     -89.105      -7.372
  H     -145.515     -88.865      -5.734

 6  7  8  9  10  11  12  13  14  15  26  29  33  34 0
 6-311+G(2d,p)
 ****
 36  38  39  40  41 0
 6-311+G(2d,p)
 ****
 1  2  3  4  5  16  17  18  19  20  21  22  23  24  25 0
 3-21G
 ****
 27  28  30  31  32  35  37  42  43  44  45  46  47 0
 3-21G
 ****
 48  49 0
 3-21G
 ****


