%nproc=1
%NoSave
%Mem=1900MB
#P OB98/GEN NMR

erre ene a

0 1
  C       91.069     210.429    -957.810
  O       92.195     211.288    -957.958
  P       93.551     210.680    -958.554
  C       94.305     209.503    -956.310
  O       94.013     209.423    -957.686
  C       94.913     208.169    -955.847
  O       95.962     207.757    -956.745
  C       95.519     208.238    -954.451
  O       94.569     207.998    -953.432
  C       96.602     207.173    -954.525
  O       96.021     205.861    -954.387
  C       97.131     207.382    -955.963
  N       98.190     208.397    -956.182
  C       99.450     208.219    -955.618
  O       99.766     207.257    -954.930
  N      100.368     209.197    -955.878
  C      100.220     210.231    -956.762
  O      101.107     211.044    -957.000
  C       98.922     210.287    -957.445
  C       97.984     209.402    -957.117
  O       94.645     211.798    -958.220
  O       93.497     210.374    -960.021
  H       95.709     205.781    -953.462
  H       95.001     212.188    -959.043
  H      101.263     209.123    -955.421
  H       98.781     211.059    -958.187
  H       97.013     209.438    -957.617
  H       97.512     206.440    -956.374
  H       97.315     207.279    -953.708
  H       96.014     209.203    -954.305
  H       94.125     207.402    -955.868
  H       93.402     209.716    -955.733
  H       95.006     210.320    -956.125
  P       93.973     209.229    -952.592
  C       94.112     207.841    -950.440
  O       94.519     209.035    -951.096
  O       92.503     209.465    -952.722
  O       94.837     210.486    -953.107
  H       94.346     210.971    -953.813
  H       94.664     207.747    -949.503
  H       94.328     206.968    -951.065
  H       93.042     207.886    -950.219
  H       90.249     210.983    -957.402
  H       91.319     209.624    -957.151
  H       90.793     210.035    -958.766

 3  4  5  6  7  8  9  10  11  12  13  23  28  29  30  31  32 0
 6-311+G(2d,p)
 ****
 33  34 0
 6-311+G(2d,p)
 ****
 1  2  14  15  16  17  18  19  20  21  22  24  25  26  27 0
 3-21G
 ****
 35  36  37  38  39  40  41  42  43  44  45 0
 3-21G
 ****


