%nproc=1
%NoSave
%Mem=1900MB
#P OB98/GEN NMR

erre ene a

0 1
  C      -12.524      -4.407       5.893
  O      -11.723      -4.764       4.788
  P      -10.127      -4.813       4.897
  C      -10.185      -2.489       3.785
  O       -9.612      -3.292       4.811
  C       -9.952      -1.003       4.080
  O      -10.523      -0.692       5.390
  C       -8.458      -0.627       4.114
  O       -8.107       0.475       3.277
  C       -8.195      -0.430       5.598
  O       -7.055       0.359       5.881
  C       -9.546       0.107       6.084
  N       -9.691       0.028       7.535
  C       -9.736       1.230       8.234
  O       -9.674       2.340       7.713
  N       -9.796       1.129       9.596
  C       -9.699      -0.022      10.319
  O       -9.660      -0.031      11.541
  C       -9.613      -1.258       9.526
  C       -9.635      -1.184       8.194
  O       -9.450      -5.744       3.949
  O       -9.880      -5.159       6.441
  H       -6.951       0.398       6.850
  H      -10.247      -4.514       7.069
  H       -9.830       1.993      10.115
  H       -9.524      -2.186      10.072
  H       -9.573      -2.078       7.584
  H       -9.697       1.143       5.779
  H       -8.016      -1.418       6.040
  H       -7.837      -1.450       3.742
  H      -10.488      -0.424       3.323
  H      -11.260      -2.682       3.747
  H       -9.765      -2.771       2.814
  P       -6.669       0.705       2.615
  C       -5.720       2.684       4.009
  O       -5.693       1.299       3.735
  O       -6.676       1.452       1.323
  O       -6.114      -0.782       2.403
  H       -5.509      -0.798       1.638
  H       -4.733       2.989       4.366
  H       -6.453       2.881       4.795
  H       -5.971       3.266       3.118
  H      -13.555      -4.436       5.610
  H      -12.270      -3.418       6.213
  H      -12.354      -5.096       6.694

 3  4  5  6  7  8  9  10  11  12  13  23  28  29  30  31  32 0
 6-311+G(2d,p)
 ****
 33  34 0
 6-311+G(2d,p)
 ****
 1  2  14  15  16  17  18  19  20  21  22  24  25  26  27 0
 3-21G
 ****
 35  36  37  38  39  40  41  42  43  44  45 0
 3-21G
 ****


