%nproc=1
%NoSave
%Mem=1900MB
#P OB98/GEN NMR

erre ene a

0 1
  C      524.756     133.606    -272.921
  O      524.322     133.052    -271.695
  H      525.260     134.554    -272.716
  H      523.904     133.797    -273.577
  H      525.465     132.935    -273.413
  P      523.512     131.670    -271.723
  C      521.271     132.952    -271.697
  O      522.083     131.976    -271.059
  C      519.937     133.091    -270.963
  O      519.128     134.114    -271.575
  C      519.091     131.823    -270.951
  O      519.531     130.930    -269.936
  C      517.719     132.406    -270.656
  O      517.624     132.736    -269.258
  C      517.739     133.695    -271.501
  N      513.601     133.813    -274.443
  C      513.709     133.879    -273.067
  N      512.554     133.959    -272.374
  N      514.854     133.858    -272.427
  C      515.923     133.706    -273.242
  C      515.937     133.610    -274.616
  C      514.673     133.703    -275.314
  O      514.531     133.671    -276.538
  N      517.200     133.371    -275.087
  C      517.957     133.375    -274.005
  N      517.227     133.565    -272.852
  O      524.214     130.486    -271.135
  O      523.156     131.454    -273.271
  H      518.145     133.547    -269.116
  H      523.841     130.924    -273.720
  H      512.693     133.824    -274.878
  H      519.034     133.247    -273.998
  H      517.174     134.508    -271.024
  H      516.902     131.713    -270.883
  H      511.647     133.826    -272.795
  H      519.072     131.340    -271.934
  H      512.615     133.951    -271.362
  H      520.151     133.428    -269.937
  H      521.105     132.622    -272.725
  H      521.780     133.924    -271.716
  P      520.082     129.463    -270.286
  C      517.924     128.287    -271.104
  O      518.838     128.476    -270.037
  O      521.330     129.078    -269.583
  O      520.194     129.451    -271.880
  H      521.054     129.829    -272.205
  H      517.153     127.611    -270.798
  H      518.441     127.881    -271.948
  H      517.488     129.227    -271.371

 6  7  8  9  10  11  12  13  14  15  26  29  33  34 0
 6-311+G(2d,p)
 ****
 36  38  39  40  41 0
 6-311+G(2d,p)
 ****
 1  2  3  4  5  16  17  18  19  20  21  22  23  24  25 0
 3-21G
 ****
 27  28  30  31  32  35  37  42  43  44  45  46  47 0
 3-21G
 ****
 48  49 0
 3-21G
 ****


