%nproc=1
%NoSave
%Mem=1900MB
#P OB98/GEN NMR

erre ene a

0 1
  C       37.857     -24.644     585.252
  O       38.533     -23.707     586.070
  H       38.477     -24.854     584.377
  H       36.901     -24.233     584.915
  H       37.696     -25.574     585.802
  P       37.768     -23.231     587.399
  C       35.641     -21.815     587.811
  O       36.599     -22.269     586.866
  C       35.124     -20.432     587.421
  O       34.833     -20.387     586.014
  C       33.843     -20.018     588.136
  O       34.137     -19.481     589.414
  C       33.319     -18.945     587.192
  O       34.004     -17.703     587.444
  C       33.715     -19.490     585.807
  N       29.844     -19.095     582.459
  C       30.578     -18.155     583.093
  N       31.555     -18.330     584.011
  C       31.753     -19.634     584.250
  C       31.076     -20.708     583.680
  C       30.082     -20.395     582.736
  N       29.330     -21.357     582.093
  N       31.547     -21.902     584.173
  C       32.532     -21.565     584.980
  N       32.671     -20.200     585.091
  O       38.632     -22.682     588.482
  O       36.966     -24.566     587.781
  H       33.949     -17.542     588.404
  H       36.608     -24.989     586.982
  H       30.353     -17.127     582.828
  H       33.184     -22.264     585.494
  H       34.056     -18.690     585.138
  H       32.254     -18.754     587.321
  H       33.118     -20.840     588.184
  H       35.924     -19.705     587.612
  H       36.087     -21.776     588.813
  H       28.520     -21.042     581.585
  H       29.424     -22.313     582.404
  H       34.820     -22.537     587.828
  P       33.120     -19.661     590.643
  C       30.693     -18.916     591.047
  O       31.885     -18.699     590.300
  O       33.736     -19.476     591.986
  O       32.507     -21.123     590.437
  H       32.084     -21.428     591.265
  H       29.944     -18.220     590.733
  H       30.895     -18.777     592.089
  H       30.345     -19.914     590.881

 6  7  8  9  10  11  12  13  14  15  25  28  32  33  34  35 0
 6-311+G(2d,p)
 ****
 36  39  40 0
 6-311+G(2d,p)
 ****
 1  2  3  4  5  16  17  18  19  20  21  22  23  24 0
 3-21G
 ****
 26  27  29  30  31  37  38  41  42  43  44  45  46  47 0
 3-21G
 ****
 48 0
 3-21G
 ****


