%nproc=1
%NoSave
%Mem=1900MB
#P OB98/GEN NMR

erre ene a

0 1
  C      -68.172     142.941      99.966
  O      -68.347     143.920      98.956
  P      -67.247     143.994      97.790
  C      -67.707     146.578      97.989
  O      -67.365     145.469      97.173
  C      -67.671     147.869      97.169
  O      -66.311     148.176      96.795
  C      -68.447     147.809      95.860
  O      -69.846     147.928      96.069
  C      -67.819     148.965      95.091
  O      -68.386     150.215      95.517
  C      -66.344     148.873      95.532
  N      -65.487     148.221      94.545
  C      -65.422     148.824      93.292
  O      -66.038     149.848      93.006
  N      -64.631     148.194      92.368
  C      -63.970     147.014      92.547
  O      -63.311     146.470      91.670
  C      -64.103     146.407      93.880
  C      -64.842     147.027      94.802
  O      -67.916     143.040      96.694
  O      -65.886     143.587      98.240
  H      -68.885     143.019      96.776
  H      -67.793     150.916      95.183
  H      -64.550     148.623      91.459
  H      -63.598     145.465      94.057
  H      -64.959     146.590      95.786
  H      -65.944     149.875      95.727
  H      -67.973     148.886      94.010
  H      -68.233     146.866      95.343
  H      -68.044     148.686      97.800
  H      -66.992     146.647      98.813
  H      -68.707     146.416      98.407
  P      -70.741     146.644      95.695
  C      -71.859     147.602      93.536
  O      -72.002     147.201      94.881
  O      -71.336     146.253      97.128
  O      -69.972     145.553      95.024
  H      -71.619     147.026      97.644
  H      -72.845     147.602      93.063
  H      -71.203     146.925      92.984
  H      -71.451     148.616      93.499
  H      -68.974     143.008     100.671
  H      -67.242     143.108     100.468
  H      -68.168     141.967      99.522

 3  4  5  6  7  8  9  10  11  12  13  24  28  29  30  31  32 0
 6-311+G(2d,p)
 ****
 33  34 0
 6-311+G(2d,p)
 ****
 1  2  14  15  16  17  18  19  20  21  22  23  25  26  27 0
 3-21G
 ****
 35  36  37  38  39  40  41  42  43  44  45 0
 3-21G
 ****


