%nproc=1
%NoSave
%Mem=1900MB
#P OB98/GEN NMR

erre ene a

0 1
  C      -59.747     -28.227      37.739
  O      -58.502     -27.579      37.906
  P      -58.078     -26.947      39.314
  C      -59.397     -24.765      39.053
  O      -59.254     -25.970      39.793
  C      -59.616     -23.567      39.976
  O      -60.767     -23.816      40.824
  C      -58.420     -23.249      40.886
  O      -58.330     -21.822      40.982
  C      -58.836     -23.847      42.217
  O      -58.145     -23.264      43.313
  C      -60.346     -23.594      42.185
  N      -61.074     -24.447      43.113
  C      -60.981     -24.129      44.469
  O      -60.206     -23.247      44.847
  N      -61.758     -24.828      45.361
  C      -62.414     -25.871      44.954
  N      -63.223     -26.493      45.855
  C      -62.333     -26.382      43.571
  C      -61.689     -25.607      42.702
  O      -56.715     -26.341      39.352
  O      -58.186     -28.170      40.343
  H      -57.343     -28.257      40.827
  H      -58.464     -23.672      44.145
  H      -62.794     -27.324      43.311
  H      -61.598     -25.882      41.658
  H      -60.567     -22.544      42.423
  H      -58.626     -24.923      42.217
  H      -57.477     -23.648      40.503
  H      -59.855     -22.697      39.353
  H      -63.286     -26.090      46.782
  H      -60.262     -24.870      38.395
  H      -63.996     -27.094      45.563
  H      -58.515     -24.610      38.422
  P      -56.894     -21.133      40.752
  C      -56.245     -21.320      43.258
  O      -55.917     -21.634      41.918
  O      -57.191     -19.617      41.191
  O      -56.357     -21.162      39.358
  H      -56.558     -19.027      40.743
  H      -55.440     -21.679      43.906
  H      -57.173     -21.822      43.547
  H      -56.345     -20.242      43.389
  H      -59.835     -28.576      36.731
  H      -60.539     -27.538      37.948
  H      -59.810     -29.057      38.411

 3  4  5  6  7  8  9  10  11  12  13  24  27  28  29  30  32 0
 6-311+G(2d,p)
 ****
 34  35 0
 6-311+G(2d,p)
 ****
 1  2  14  15  16  17  18  19  20  21  22  23  25  26 0
 3-21G
 ****
 31  33  36  37  38  39  40  41  42  43  44  45  46 0
 3-21G
 ****


