%nproc=1
%NoSave
%Mem=1900MB
#P OB98/GEN NMR

erre ene a

0 1
  C      884.060     123.715    -244.005
  O      883.444     124.485    -245.020
  H      883.290     123.385    -243.297
  H      884.789     124.327    -243.467
  H      884.551     122.838    -244.423
  P      884.293     124.864    -246.324
  C      884.635     127.304    -245.547
  O      884.101     126.448    -246.546
  C      883.509     127.909    -244.696
  O      882.824     128.926    -245.497
  C      882.446     126.881    -244.239
  O      881.961     127.323    -242.958
  C      881.393     127.062    -245.316
  O      880.167     126.469    -244.960
  C      881.415     128.586    -245.468
  N      880.724     129.064    -246.663
  C      879.368     128.775    -246.770
  O      878.726     128.171    -245.920
  N      878.758     129.214    -247.926
  C      879.378     129.885    -248.942
  O      878.775     130.271    -249.949
  C      880.811     130.134    -248.785
  C      881.410     129.721    -247.659
  O      884.043     124.028    -247.530
  O      885.817     124.756    -245.829
  H      886.177     123.886    -246.095
  H      879.790     126.923    -244.176
  H      877.777     129.006    -248.028
  H      881.330     130.653    -249.581
  H      882.477     129.884    -247.505
  H      880.986     129.069    -244.581
  H      881.716     126.573    -246.249
  H      882.844     125.869    -244.151
  H      883.954     128.428    -243.839
  H      885.195     128.109    -246.042
  H      885.320     126.728    -244.909
  P      882.797     127.168    -241.603
  C      880.879     125.986    -240.351
  O      881.777     127.075    -240.358
  O      883.846     128.224    -241.425
  O      883.470     125.721    -241.664
  H      884.346     125.754    -241.256
  H      880.261     126.039    -239.479
  H      881.430     125.069    -240.343
  H      880.265     126.025    -241.226

 6  7  8  9  10  11  12  13  14  15  16  27  31  32  33  34  35 0
 6-311+G(2d,p)
 ****
 36  37 0
 6-311+G(2d,p)
 ****
 1  2  3  4  5  17  18  19  20  21  22  23  24  25 0
 3-21G
 ****
 26  28  29  30  38  39  40  41  42  43  44  45 0
 3-21G
 ****


