%nproc=1
%NoSave
%Mem=1900MB
#P OB98/GEN NMR

erre ene a

0 1
  C     -109.761     175.989      74.531
  O     -109.392     174.703      74.067
  P     -110.536     173.744      73.481
  C     -111.027     172.654      75.821
  O     -110.631     172.485      74.471
  C     -111.498     171.320      76.407
  O     -111.795     171.505      77.820
  C     -112.759     170.744      75.746
  O     -112.623     169.315      75.743
  C     -113.864     171.172      76.698
  O     -115.031     170.370      76.580
  C     -113.146     171.050      78.044
  N     -113.777     171.823      79.113
  C     -114.649     171.162      79.973
  O     -114.936     169.965      79.870
  N     -115.215     171.930      80.955
  C     -115.058     173.275      81.119
  O     -115.604     173.916      82.008
  C     -114.161     173.932      80.155
  C     -113.564     173.186      79.220
  O     -109.811     173.162      72.178
  O     -111.830     174.438      73.224
  H     -108.857     173.019      72.307
  H     -114.769     169.438      76.711
  H     -115.823     171.462      81.612
  H     -114.019     175.005      80.243
  H     -112.903     173.650      78.496
  H     -113.085     169.993      78.342
  H     -114.143     172.212      76.485
  H     -112.899     171.105      74.723
  H     -110.669     170.602      76.341
  H     -111.849     173.374      75.871
  H     -110.187     173.059      76.397
  P     -112.780     168.540      74.340
  C     -115.326     168.989      73.918
  O     -114.303     168.063      74.224
  O     -112.003     167.176      74.686
  O     -112.205     169.253      73.160
  H     -112.282     166.786      75.530
  H     -116.202     168.438      73.560
  H     -115.012     169.690      73.144
  H     -115.603     169.537      74.822
  H     -108.893     176.502      74.888
  H     -110.470     175.891      75.327
  H     -110.200     176.545      73.729

 3  4  5  6  7  8  9  10  11  12  13  24  28  29  30  31  32 0
 6-311+G(2d,p)
 ****
 33  34 0
 6-311+G(2d,p)
 ****
 1  2  14  15  16  17  18  19  20  21  22  23  25  26  27 0
 3-21G
 ****
 35  36  37  38  39  40  41  42  43  44  45 0
 3-21G
 ****


