%nproc=1
%NoSave
%Mem=1900MB
#P OB98/GEN NMR

erre ene a

0 1
  C        2.755      75.813       5.372
  O        1.657      75.256       4.673
  H        2.847      76.868       5.100
  H        3.686      75.306       5.102
  H        2.594      75.740       6.450
  P        1.410      73.677       4.784
  C        1.476      73.248       2.234
  O        2.109      73.041       3.492
  C        2.359      72.718       1.110
  O        3.626      73.407       1.101
  C        2.691      71.240       1.255
  O        1.588      70.436       0.889
  C        3.908      71.131       0.357
  O        3.531      71.045      -1.023
  C        4.629      72.467       0.650
  N        5.697      72.328       1.634
  C        6.856      71.680       1.194
  O        6.940      71.269       0.038
  N        7.881      71.497       2.089
  C        7.768      71.934       3.303
  N        8.820      71.719       4.138
  C        6.570      72.633       3.803
  C        5.581      72.790       2.925
  O       -0.001      73.228       5.007
  O        2.378      73.229       5.978
  H        4.363      71.115      -1.531
  H        1.913      73.284       6.833
  H        6.522      72.985       4.822
  H        4.664      73.297       3.210
  H        5.060      72.881      -0.269
  H        4.502      70.250       0.594
  H        3.006      71.023       2.281
  H        1.860      72.918       0.154
  H        9.619      71.225       3.755
  H        1.327      74.327       2.121
  H        8.881      72.090       5.074
  H        0.497      72.758       2.209
  P        1.644      68.843       1.069
  C        1.546      68.732      -1.505
  O        2.204      68.277      -0.326
  O        0.385      68.212       1.558
  O        2.885      68.635       2.061
  H        2.655      68.892       2.986
  H        2.006      68.289      -2.364
  H        1.624      69.797      -1.569
  H        0.514      68.452      -1.468

 6  7  8  9  10  11  12  13  14  15  16  26  30  31  32  33  35 0
 6-311+G(2d,p)
 ****
 37  38 0
 6-311+G(2d,p)
 ****
 1  2  3  4  5  17  18  19  20  21  22  23  24  25 0
 3-21G
 ****
 27  28  29  34  36  39  40  41  42  43  44  45  46 0
 3-21G
 ****


