%nproc=1
%NoSave
%Mem=1900MB
#P OB98/GEN NMR

erre ene a

0 1
  C      455.174     631.498     158.665
  O      454.532     630.581     157.796
  P      453.079     630.873     157.209
  C      452.286     628.679     158.293
  O      452.051     630.077     158.161
  C      451.281     628.053     159.264
  O      451.555     628.478     160.620
  C      449.827     628.427     158.995
  O      449.321     627.682     157.892
  C      449.187     628.099     160.335
  O      448.887     626.696     160.440
  C      450.301     628.493     161.333
  N      450.054     629.780     161.969
  C      448.951     629.839     162.811
  O      448.204     628.840     162.970
  N      448.643     631.035     163.433
  C      449.383     632.073     163.195
  N      449.034     633.232     163.825
  C      450.546     632.059     162.276
  C      450.814     630.896     161.704
  O      452.918     630.641     155.745
  O      452.825     632.414     157.643
  H      448.187     626.503     159.785
  H      453.357     633.028     157.084
  H      451.117     632.958     162.113
  H      451.653     630.795     161.016
  H      450.387     627.736     162.119
  H      448.245     628.643     160.476
  H      449.756     629.497     158.799
  H      451.402     626.948     159.220
  H      448.216     633.208     164.424
  H      453.290     628.526     158.679
  H      449.501     634.105     163.690
  H      452.217     628.199     157.312
  P      447.790     627.835     157.475
  C      447.515     625.374     158.171
  O      446.968     626.677     158.231
  O      447.527     627.969     156.020
  O      447.316     629.164     158.248
  H      446.787     629.715     157.637
  H      447.075     624.775     158.967
  H      448.606     625.407     158.313
  H      447.280     624.928     157.198
  H      456.134     631.115     158.942
  H      454.578     631.635     159.543
  H      455.295     632.437     158.166

 3  4  5  6  7  8  9  10  11  12  13  23  27  28  29  30  32 0
 6-311+G(2d,p)
 ****
 34  35 0
 6-311+G(2d,p)
 ****
 1  2  14  15  16  17  18  19  20  21  22  24  25  26 0
 3-21G
 ****
 31  33  36  37  38  39  40  41  42  43  44  45  46 0
 3-21G
 ****


