%nproc=1
%NoSave
%Mem=1900MB
#P OB98/GEN NMR

erre ene a

0 1
  C      376.738    -154.042    -231.805
  O      377.864    -153.319    -232.263
  H      376.031    -153.365    -231.312
  H      376.244    -154.504    -232.663
  H      377.050    -154.827    -231.110
  P      378.748    -152.585    -231.146
  C      380.827    -154.072    -231.594
  O      379.840    -153.658    -230.663
  C      382.194    -154.140    -230.917
  O      382.498    -152.879    -230.287
  C      382.306    -155.188    -229.817
  O      382.518    -156.488    -230.343
  C      383.530    -154.684    -229.069
  O      384.725    -155.068    -229.778
  C      383.342    -153.161    -229.139
  N      383.918    -152.283    -224.131
  C      384.755    -152.798    -225.057
  N      384.539    -152.980    -226.377
  C      383.311    -152.552    -226.717
  C      382.356    -151.987    -225.892
  C      382.693    -151.862    -224.532
  N      381.799    -151.397    -223.580
  N      381.209    -151.686    -226.599
  C      381.464    -152.083    -227.831
  N      382.723    -152.605    -227.953
  O      377.738    -152.479    -229.905
  O      379.286    -151.249    -231.538
  H      385.478    -154.797    -229.222
  H      377.331    -151.594    -229.900
  H      385.728    -153.106    -224.691
  H      380.772    -152.013    -228.659
  H      384.289    -152.633    -229.299
  H      383.616    -155.085    -228.055
  H      381.442    -155.162    -229.144
  H      382.946    -154.316    -231.697
  H      380.868    -153.356    -232.423
  H      381.962    -151.779    -222.652
  H      380.841    -151.352    -223.895
  H      380.548    -155.055    -231.986
  P      381.538    -157.664    -229.859
  C      380.642    -158.082    -232.248
  O      380.328    -157.711    -230.914
  O      380.872    -157.042    -228.542
  O      382.199    -158.964    -229.568
  H      381.023    -157.641    -227.785
  H      379.751    -158.073    -232.840
  H      381.064    -159.065    -232.255
  H      381.348    -157.388    -232.655

 6  7  8  9  10  11  12  13  14  15  25  28  32  33  34  35 0
 6-311+G(2d,p)
 ****
 36  39  40 0
 6-311+G(2d,p)
 ****
 1  2  3  4  5  16  17  18  19  20  21  22  23  24 0
 3-21G
 ****
 26  27  29  30  31  37  38  41  42  43  44  45  46  47  48 0
 3-21G
 ****


