%nproc=1
%NoSave
%Mem=1900MB
#P OB98/GEN NMR

erre ene a

0 1
  C      566.960     269.760    -349.654
  O      567.757     268.615    -349.419
  H      566.713     270.216    -348.686
  H      566.035     269.485    -350.160
  H      567.515     270.488    -350.251
  P      568.190     267.770    -350.716
  C      567.013     265.659    -349.814
  O      568.255     266.250    -350.195
  C      567.205     264.180    -349.475
  O      567.743     263.499    -350.642
  C      568.182     263.940    -348.312
  O      567.729     262.811    -347.555
  C      569.483     263.582    -349.027
  O      570.361     262.825    -348.199
  C      568.949     262.823    -350.248
  N      572.256     259.891    -352.781
  C      571.303     259.600    -351.869
  N      570.454     260.445    -351.253
  C      570.604     261.699    -351.722
  C      571.532     262.143    -352.649
  C      572.395     261.175    -353.192
  N      573.382     261.461    -354.101
  N      571.412     263.509    -352.828
  C      570.425     263.883    -352.031
  N      569.920     262.817    -351.332
  O      569.414     268.250    -351.418
  O      566.839     267.784    -351.582
  H      571.220     262.716    -348.662
  H      566.061     267.575    -351.032
  H      571.235     258.543    -351.577
  H      570.044     264.894    -351.919
  H      568.699     261.771    -350.024
  H      570.005     264.488    -349.333
  H      568.301     264.806    -347.669
  H      566.223     263.729    -349.268
  H      566.282     265.748    -350.636
  H      573.969     260.706    -354.438
  H      573.508     262.414    -354.420
  H      566.630     266.204    -348.943
  P      567.051     263.062    -346.129
  C      568.124     260.927    -345.171
  O      566.917     261.660    -345.354
  O      565.804     263.892    -346.147
  O      568.202     263.807    -345.296
  H      567.824     264.543    -344.784
  H      567.913     260.018    -344.647
  H      568.815     261.514    -344.603
  H      568.550     260.698    -346.125

 6  7  8  9  10  11  12  13  14  15  25  28  32  33  34  35 0
 6-311+G(2d,p)
 ****
 36  39  40 0
 6-311+G(2d,p)
 ****
 1  2  3  4  5  16  17  18  19  20  21  22  23  24 0
 3-21G
 ****
 26  27  29  30  31  37  38  41  42  43  44  45  46  47 0
 3-21G
 ****
 48 0
 3-21G
 ****


