%nproc=1
%NoSave
%Mem=1900MB
#P OB98/GEN NMR

erre ene a

0 1
  C      -79.057    -897.250     567.265
  O      -80.396    -897.610     566.964
  H      -78.723    -896.520     566.529
  H      -78.414    -898.130     567.219
  H      -78.993    -896.800     568.263
  P      -81.135    -898.590     567.995
  C      -83.022    -896.890     568.565
  O      -81.920    -897.640     569.038
  C      -83.296    -895.710     569.511
  O      -83.593    -896.260     570.831
  C      -82.094    -894.770     569.663
  O      -82.568    -893.440     569.785
  C      -81.452    -895.210     570.976
  O      -80.669    -894.200     571.598
  C      -82.698    -895.610     571.785
  N      -82.368    -896.520     572.876
  C      -82.914    -896.240     574.128
  O      -83.703    -895.320     574.355
  N      -82.531    -897.070     575.150
  C      -81.653    -898.120     575.048
  O      -81.332    -898.810     575.996
  C      -81.116    -898.370     573.704
  C      -81.481    -897.570     572.701
  O      -79.931    -899.190     568.870
  O      -81.969    -899.670     567.383
  H      -79.588    -900.000     568.476
  H      -80.222    -894.610     572.372
  H      -82.912    -896.880     576.060
  H      -80.400    -899.180     573.591
  H      -81.088    -897.720     571.698
  H      -83.207    -894.730     572.166
  H      -80.808    -896.080     570.806
  H      -81.389    -894.840     568.834
  H      -84.180    -895.190     569.173
  H      -83.904    -897.540     568.504
  H      -82.791    -896.510     567.558
  P      -81.731    -892.250     569.057
  C      -82.945    -892.650     566.778
  O      -81.722    -892.640     567.498
  O      -80.254    -892.610     569.550
  O      -82.226    -890.890     569.397
  H      -80.068    -893.580     569.627
  H      -82.758    -892.929     565.762
  H      -83.383    -891.674     566.805
  H      -83.616    -893.354     567.224

 6  7  8  9  10  11  12  13  14  15  16  27  31  32  33  34  35 0
 6-311+G(2d,p)
 ****
 36  37 0
 6-311+G(2d,p)
 ****
 1  2  3  4  5  17  18  19  20  21  22  23  24  25 0
 3-21G
 ****
 26  28  29  30  38  39  40  41  42  43  44  45 0
 3-21G
 ****


