%nproc=1
%NoSave
%Mem=1900MB
#P OB98/GEN NMR

erre ene a

0 1
  C      975.551    1573.175    -632.721
  O      974.409    1572.559    -632.112
  P      974.746    1571.528    -630.931
  C      972.655    1571.742    -629.374
  O      974.024    1572.084    -629.592
  C      972.311    1571.758    -627.891
  O      972.907    1570.601    -627.196
  C      972.782    1573.015    -627.148
  O      971.800    1573.321    -626.144
  C      974.077    1572.537    -626.524
  O      974.542    1573.393    -625.468
  C      973.640    1571.137    -626.088
  N      975.009    1566.881    -623.597
  C      973.823    1567.506    -623.746
  N      973.532    1568.637    -624.406
  C      974.650    1569.134    -624.994
  C      975.939    1568.603    -624.944
  C      976.112    1567.415    -624.206
  N      977.326    1566.790    -624.054
  N      976.815    1569.414    -625.643
  C      976.096    1570.444    -626.048
  N      974.771    1570.265    -625.755
  O      976.290    1571.780    -630.651
  O      974.432    1570.130    -631.264
  H      975.373    1573.052    -625.131
  H      976.819    1571.101    -631.088
  H      972.972    1567.025    -623.256
  H      976.446    1571.324    -626.541
  H      972.994    1571.150    -625.203
  H      974.858    1572.516    -627.258
  H      972.913    1573.907    -627.806
  H      971.203    1571.652    -627.802
  H      972.457    1570.749    -629.790
  H      977.342    1565.933    -623.499
  H      978.144    1567.172    -624.472
  H      972.028    1572.425    -629.938
  P      970.703    1574.427    -626.474
  C      968.930    1572.723    -625.730
  O      969.352    1573.598    -626.760
  O      971.123    1574.886    -627.963
  O      970.622    1575.577    -625.495
  H      971.237    1574.111    -628.507
  H      967.953    1572.298    -626.005
  H      968.782    1573.292    -624.783
  H      969.663    1571.922    -625.611
  H      975.227    1573.842    -633.493
  H      976.181    1572.420    -633.143
  H      976.097    1573.723    -631.982

 3  4  5  6  7  8  9  10  11  12  22  25  29  30  31  32 0
 6-311+G(2d,p)
 ****
 33  36  37 0
 6-311+G(2d,p)
 ****
 1  2  13  14  15  16  17  18  19  20  21  23  24  26 0
 3-21G
 ****
 27  28  34  35  38  39  40  41  42  43  44  45  46  47  48 0
 3-21G
 ****


