%nproc=1
%NoSave
%Mem=1900MB
#P OB98/GEN NMR

erre ene a

0 1
  C     -349.054    -466.603    -271.596
  O     -349.951    -466.800    -270.523
  H     -348.192    -466.036    -271.237
  H     -349.550    -466.025    -272.382
  H     -348.708    -467.558    -271.999
  P     -351.078    -467.926    -270.704
  C     -352.485    -466.446    -269.100
  O     -352.095    -467.762    -269.471
  C     -353.396    -466.487    -267.874
  O     -354.591    -467.257    -268.207
  C     -352.753    -467.133    -266.635
  O     -353.207    -466.441    -265.465
  C     -353.365    -468.523    -266.627
  O     -353.346    -469.116    -265.333
  C     -354.765    -468.219    -267.151
  N     -356.328    -472.744    -265.648
  C     -355.866    -471.667    -264.919
  N     -355.742    -471.836    -263.586
  N     -355.548    -470.519    -265.454
  C     -355.737    -470.479    -266.796
  C     -356.181    -471.473    -267.632
  C     -356.516    -472.747    -267.028
  O     -356.908    -473.746    -267.623
  N     -356.175    -471.058    -268.938
  C     -355.707    -469.820    -268.893
  N     -355.425    -469.427    -267.616
  O     -350.285    -469.274    -270.361
  O     -351.714    -467.983    -272.053
  H     -353.740    -470.009    -265.400
  H     -349.957    -469.684    -271.183
  H     -356.543    -473.614    -265.191
  H     -355.536    -469.184    -269.749
  H     -355.413    -467.775    -266.385
  H     -352.818    -469.177    -267.315
  H     -355.998    -472.680    -263.099
  H     -351.659    -467.147    -266.658
  H     -355.443    -471.041    -263.034
  H     -353.725    -465.466    -267.647
  H     -353.026    -465.984    -269.932
  H     -351.591    -465.851    -268.892
  P     -352.175    -466.268    -264.249
  C     -353.374    -466.614    -261.963
  O     -352.972    -465.702    -262.976
  O     -351.284    -465.019    -264.706
  O     -351.335    -467.475    -263.989
  H     -350.368    -465.134    -264.392
  H     -353.890    -466.084    -261.190
  H     -352.510    -467.093    -261.552
  H     -354.024    -467.352    -262.385

 6  7  8  9  10  11  12  13  14  15  26  29  33  34 0
 6-311+G(2d,p)
 ****
 36  38  39  40  41 0
 6-311+G(2d,p)
 ****
 1  2  3  4  5  16  17  18  19  20  21  22  23  24  25 0
 3-21G
 ****
 27  28  30  31  32  35  37  42  43  44  45  46  47 0
 3-21G
 ****
 48  49 0
 3-21G
 ****


