%nproc=1
%NoSave
%Mem=1900MB
#P OB98/GEN NMR

erre ene a

0 1
  C     -123.342       4.890     190.073
  O     -124.079       5.673     190.991
  H     -122.307       4.823     190.419
  H     -123.355       5.353     189.082
  H     -123.764       3.882     190.017
  P     -125.607       5.986     190.600
  C     -126.647       7.404     188.671
  O     -125.478       7.044     189.395
  C     -126.377       8.653     187.836
  O     -126.310       9.826     188.680
  C     -125.054       8.632     187.071
  O     -125.094       7.832     185.900
  C     -124.918      10.109     186.746
  O     -125.828      10.454     185.682
  C     -125.354      10.745     188.083
  N     -124.229      10.983     188.997
  C     -123.627      12.243     188.936
  O     -124.028      13.097     188.147
  N     -122.547      12.499     189.751
  C     -122.122      11.588     190.570
  N     -121.049      11.901     191.349
  C     -122.735      10.251     190.677
  C     -123.772      10.020     189.873
  O     -126.122       6.896     191.813
  O     -126.466       4.801     190.308
  H     -126.692      10.072     185.923
  H     -127.012       7.269     191.600
  H     -122.334       9.520     191.366
  H     -124.274       9.058     189.895
  H     -125.873      11.698     187.915
  H     -123.918      10.388     186.412
  H     -124.219       8.333     187.719
  H     -127.228       8.787     187.153
  H     -120.612      12.802     191.211
  H     -127.451       7.598     189.390
  H     -120.552      11.215     191.905
  H     -126.947       6.586     188.011
  P     -123.797       6.941     185.573
  C     -121.337       7.425     184.860
  O     -122.625       7.956     185.162
  O     -124.179       6.234     184.193
  O     -123.437       5.943     186.635
  H     -123.798       5.339     184.141
  H     -120.672       8.224     184.607
  H     -121.414       6.750     184.034
  H     -120.958       6.902     185.713

 6  7  8  9  10  11  12  13  14  15  16  26  30  31  32  33  35 0
 6-311+G(2d,p)
 ****
 37  38 0
 6-311+G(2d,p)
 ****
 1  2  3  4  5  17  18  19  20  21  22  23  24  25 0
 3-21G
 ****
 27  28  29  34  36  39  40  41  42  43  44  45  46 0
 3-21G
 ****


