%nproc=1
%NoSave
%Mem=1900MB
#P OB98/GEN NMR

erre ene a

0 1
  C      195.620    -315.667     -74.730
  O      196.469    -316.024     -73.658
  H      195.271    -316.562     -75.254
  H      194.754    -315.133     -74.329
  H      196.150    -315.010     -75.426
  P      197.750    -316.914     -74.032
  C      197.901    -318.933     -75.650
  O      197.188    -318.309     -74.593
  C      197.175    -320.195     -76.100
  O      195.878    -319.862     -76.633
  C      197.878    -320.974     -77.206
  O      198.949    -321.762     -76.703
  C      196.734    -321.842     -77.709
  O      196.565    -322.976     -76.837
  C      195.525    -320.902     -77.585
  N      191.787    -320.362     -81.063
  C      191.849    -321.064     -79.909
  N      192.877    -321.172     -79.043
  C      193.925    -320.439     -79.453
  C      194.007    -319.672     -80.604
  C      192.875    -319.652     -81.435
  N      192.827    -318.945     -82.618
  N      195.233    -319.048     -80.687
  C      195.883    -319.430     -79.608
  N      195.136    -320.278     -78.834
  O      198.360    -317.311     -72.603
  O      198.768    -316.241     -74.891
  H      197.428    -323.430     -76.800
  H      199.332    -317.334     -72.669
  H      190.950    -321.615     -79.646
  H      196.886    -319.117     -79.346
  H      194.650    -321.422     -77.176
  H      196.896    -322.227     -78.718
  H      198.209    -320.310     -78.010
  H      197.022    -320.829     -75.216
  H      198.905    -319.199     -75.305
  H      191.936    -318.808     -83.063
  H      193.646    -318.407     -82.885
  H      197.987    -318.226     -76.482
  P      199.999    -322.346     -77.770
  C      199.770    -324.016     -79.743
  O      199.237    -323.549     -78.509
  O      201.068    -323.102     -76.847
  O      200.643    -321.331     -78.651
  H      201.928    -323.150     -77.308
  H      199.162    -324.814     -80.115
  H      200.768    -324.370     -79.589
  H      199.781    -323.215     -80.452

 6  7  8  9  10  11  12  13  14  15  25  28  32  33  34  35 0
 6-311+G(2d,p)
 ****
 36  39  40 0
 6-311+G(2d,p)
 ****
 1  2  3  4  5  16  17  18  19  20  21  22  23  24 0
 3-21G
 ****
 26  27  29  30  31  37  38  41  42  43  44  45  46  47  48 0
 3-21G
 ****


