%nproc=1
%NoSave
%Mem=1900MB
#P OB98/GEN NMR

erre ene a

0 1
  C      238.437    -270.367    -276.914
  O      239.189    -271.116    -277.870
  P      240.779    -270.867    -277.918
  C      240.803    -269.141    -279.893
  O      240.966    -269.376    -278.496
  C      240.871    -267.632    -280.187
  O      240.912    -267.424    -281.641
  C      239.696    -266.813    -279.628
  O      240.241    -265.554    -279.209
  C      238.806    -266.624    -280.847
  O      237.938    -265.507    -280.696
  C      239.857    -266.491    -281.949
  N      239.309    -266.724    -283.288
  C      238.443    -265.754    -283.800
  O      238.083    -264.772    -283.152
  N      237.982    -265.980    -285.070
  C      238.219    -267.092    -285.829
  O      237.782    -267.237    -286.962
  C      239.046    -268.135    -285.189
  C      239.541    -267.904    -283.969
  O      241.205    -271.821    -279.127
  O      241.452    -271.145    -276.614
  H      240.558    -271.854    -279.848
  H      237.420    -265.392    -281.515
  H      237.382    -265.267    -285.471
  H      239.216    -269.055    -285.742
  H      240.135    -268.662    -283.461
  H      240.299    -265.484    -281.938
  H      238.198    -267.521    -280.999
  H      239.208    -267.301    -278.793
  H      241.823    -267.253    -279.789
  H      239.831    -269.515    -280.220
  H      241.573    -269.692    -280.446
  P      240.154    -265.169    -277.645
  C      237.770    -264.062    -277.695
  O      238.598    -265.128    -277.257
  O      240.548    -263.618    -277.713
  O      241.054    -265.964    -276.739
  H      240.075    -263.134    -278.418
  H      236.730    -264.340    -277.534
  H      237.929    -263.848    -278.754
  H      237.995    -263.161    -277.103
  H      237.402    -270.629    -276.990
  H      238.556    -269.321    -277.107
  H      238.790    -270.590    -275.929

 3  4  5  6  7  8  9  10  11  12  13  24  28  29  30  31  32 0
 6-311+G(2d,p)
 ****
 33  34 0
 6-311+G(2d,p)
 ****
 1  2  14  15  16  17  18  19  20  21  22  23  25  26  27 0
 3-21G
 ****
 35  36  37  38  39  40  41  42  43  44  45 0
 3-21G
 ****


