%nproc=1
%NoSave
%Mem=1900MB
#P OB98/GEN NMR

erre ene a

0 1
  C       -9.079    -249.030    -180.529
  O       -9.841    -250.218    -180.471
  H       -8.860    -248.708    -179.507
  H       -9.643    -248.239    -181.030
  H       -8.133    -249.203    -181.049
  P      -10.298    -250.901    -181.850
  C      -12.727    -250.561    -181.008
  O      -11.802    -250.371    -182.069
  C      -13.543    -249.291    -180.787
  O      -12.705    -248.196    -180.353
  C      -14.250    -248.758    -182.029
  O      -15.381    -249.522    -182.415
  C      -14.629    -247.372    -181.540
  O      -15.751    -247.465    -180.644
  C      -13.341    -246.962    -180.787
  N      -12.427    -246.178    -181.617
  C      -12.378    -244.803    -181.366
  O      -13.081    -244.297    -180.492
  N      -11.552    -244.019    -182.138
  C      -10.856    -244.558    -183.090
  N      -10.060    -243.734    -183.828
  C      -10.894    -246.000    -183.404
  C      -11.690    -246.742    -182.636
  O      -10.119    -252.382    -181.939
  O       -9.505    -250.092    -182.981
  H      -15.502    -248.096    -179.942
  H       -9.745    -250.484    -183.857
  H      -10.319    -246.395    -184.227
  H      -11.778    -247.810    -182.809
  H      -13.582    -246.387    -179.883
  H      -14.913    -246.693    -182.346
  H      -13.547    -248.652    -182.864
  H      -14.254    -249.495    -179.974
  H      -10.056    -242.751    -183.590
  H      -12.162    -250.827    -180.107
  H       -9.545    -244.054    -184.636
  H      -13.414    -251.375    -181.250
  P      -15.301    -250.271    -183.836
  C      -17.766    -249.618    -184.396
  O      -16.400    -249.575    -184.772
  O      -15.910    -251.711    -183.521
  O      -13.933    -250.341    -184.443
  H      -15.197    -252.365    -183.379
  H      -18.354    -249.108    -185.130
  H      -17.890    -249.141    -183.446
  H      -18.085    -250.637    -184.328

 6  7  8  9  10  11  12  13  14  15  16  26  30  31  32  33  35 0
 6-311+G(2d,p)
 ****
 37  38 0
 6-311+G(2d,p)
 ****
 1  2  3  4  5  17  18  19  20  21  22  23  24  25 0
 3-21G
 ****
 27  28  29  34  36  39  40  41  42  43  44  45  46 0
 3-21G
 ****


