%nproc=1
%NoSave
%Mem=1900MB
#P OB98/GEN NMR

erre ene a

0 1
  C      -34.802     121.807     -74.165
  O      -35.803     122.176     -75.119
  P      -36.976     123.136     -74.595
  C      -39.055     122.899     -73.058
  O      -38.043     122.237     -73.805
  C      -40.301     122.016     -72.965
  O      -40.957     121.881     -74.244
  C      -40.001     120.591     -72.516
  O      -39.732     120.540     -71.126
  C      -41.282     119.880     -72.942
  O      -42.331     120.116     -71.987
  C      -41.618     120.591     -74.264
  N      -42.383     116.369     -77.054
  C      -42.973     116.826     -75.926
  N      -42.709     117.961     -75.244
  C      -41.731     118.661     -75.842
  C      -41.041     118.323     -76.995
  C      -41.397     117.112     -77.611
  N      -40.785     116.640     -78.750
  N      -40.103     119.289     -77.300
  C      -40.211     120.181     -76.336
  N      -41.190     119.852     -75.437
  O      -37.745     123.545     -75.939
  O      -36.485     124.335     -73.854
  H      -42.051     119.713     -71.142
  H      -37.564     124.479     -76.156
  H      -43.761     116.199     -75.519
  H      -39.606     121.077     -76.247
  H      -42.693     120.775     -74.374
  H      -41.161     118.796     -73.035
  H      -39.146     120.190     -73.075
  H      -41.001     122.486     -72.261
  H      -39.312     123.851     -73.527
  H      -41.047     115.725     -79.084
  H      -39.993     117.140     -79.125
  H      -38.662     123.135     -72.063
  P      -38.199     120.483     -70.664
  C      -36.232     118.946     -71.275
  O      -37.583     119.279     -71.535
  O      -38.323     119.830     -69.211
  O      -37.467     121.779     -70.740
  H      -38.929     119.066     -69.208
  H      -35.955     118.098     -71.906
  H      -36.108     118.664     -70.225
  H      -35.584     119.793     -71.515
  H      -34.081     121.170     -74.633
  H      -35.261     121.288     -73.350
  H      -34.316     122.687     -73.799

 3  4  5  6  7  8  9  10  11  12  22  25  29  30  31  32 0
 6-311+G(2d,p)
 ****
 33  36  37 0
 6-311+G(2d,p)
 ****
 1  2  13  14  15  16  17  18  19  20  21  23  24  26 0
 3-21G
 ****
 27  28  34  35  38  39  40  41  42  43  44  45  46  47  48 0
 3-21G
 ****


