%nproc=1
%NoSave
%Mem=1900MB
#P OB98/GEN NMR

erre ene a

0 1
  C     -330.514      67.900      67.761
  O     -331.289      67.233      68.732
  P     -332.459      68.005      69.511
  C     -332.487      70.010      71.124
  O     -331.735      68.909      70.625
  C     -331.589      70.926      71.951
  O     -330.348      71.209      71.255
  C     -332.185      72.298      72.226
  O     -333.331      72.357      73.047
  C     -330.959      73.068      72.689
  O     -330.669      72.808      74.062
  C     -329.857      72.468      71.780
  N     -329.470      73.387      70.711
  C     -328.704      74.480      71.097
  O     -328.354      74.691      72.258
  N     -328.369      75.357      70.102
  C     -328.757      75.272      68.796
  O     -328.459      76.119      67.962
  C     -329.582      74.106      68.452
  C     -329.897      73.228      69.408
  O     -333.554      67.137      70.033
  O     -332.947      69.101      68.451
  H     -331.428      73.122      74.588
  H     -332.258      69.727      68.166
  H     -327.825      76.164      70.361
  H     -329.896      74.003      67.421
  H     -330.504      72.359      69.179
  H     -328.962      72.234      72.370
  H     -331.094      74.150      72.587
  H     -332.491      72.736      71.265
  H     -331.328      70.406      72.877
  H     -333.293      69.630      71.761
  H     -332.944      70.550      70.289
  P     -334.184      73.693      73.276
  C     -333.453      76.178      73.365
  O     -333.189      74.850      73.763
  O     -335.478      73.545      74.006
  O     -334.490      74.139      71.763
  H     -335.351      74.599      71.736
  H     -332.657      76.822      73.745
  H     -334.405      76.519      73.779
  H     -333.471      76.255      72.274
  H     -329.790      67.224      67.356
  H     -330.013      68.730      68.213
  H     -331.151      68.252      66.977

 3  4  5  6  7  8  9  10  11  12  13  23  28  29  30  31  32 0
 6-311+G(2d,p)
 ****
 33  34 0
 6-311+G(2d,p)
 ****
 1  2  14  15  16  17  18  19  20  21  22  24  25  26  27 0
 3-21G
 ****
 35  36  37  38  39  40  41  42  43  44  45 0
 3-21G
 ****


