%nproc=1
%NoSave
%Mem=1900MB
#P OB98/GEN NMR

erre ene a

0 1
  C       93.995     120.704      -1.283
  O       93.892     121.419      -0.073
  P       92.495     122.062       0.378
  C       90.980     123.958      -0.483
  O       92.257     123.333      -0.574
  C       91.056     125.388      -1.007
  O       91.769     126.249      -0.080
  C       91.825     125.531      -2.313
  O       91.267     124.932      -3.463
  C       92.060     127.032      -2.358
  O       90.910     127.725      -2.841
  C       92.295     127.352      -0.858
  N       93.707     127.595      -0.568
  C       93.970     128.485       0.467
  O       93.094     129.053       1.118
  N       95.292     128.736       0.717
  C       96.351     128.230       0.019
  O       97.511     128.533       0.268
  C       96.009     127.308      -1.073
  C       94.724     127.034      -1.316
  O       92.369     122.348       1.837
  O       91.413     121.018      -0.175
  H       90.205     127.628      -2.171
  H       91.431     120.887      -1.140
  H       95.506     129.389       1.455
  H       96.826     126.879      -1.639
  H       94.447     126.358      -2.117
  H       91.727     128.243      -0.565
  H       92.894     127.294      -3.015
  H       92.807     125.057      -2.184
  H       90.039     125.778      -1.092
  H       90.670     123.980       0.568
  H       90.243     123.367      -1.037
  P       92.148     124.280      -4.631
  C       93.909     125.183      -6.306
  O       92.781     125.465      -5.507
  O       91.541     123.131      -5.366
  O       93.429     123.757      -3.815
  H       93.780     122.959      -4.251
  H       94.231     126.108      -6.794
  H       93.657     124.450      -7.080
  H       94.733     124.809      -5.691
  H       94.999     120.355      -1.407
  H       93.737     121.346      -2.099
  H       93.327     119.868      -1.261

 3  4  5  6  7  8  9  10  11  12  13  23  28  29  30  31  32 0
 6-311+G(2d,p)
 ****
 33  34 0
 6-311+G(2d,p)
 ****
 1  2  14  15  16  17  18  19  20  21  22  24  25  26  27 0
 3-21G
 ****
 35  36  37  38  39  40  41  42  43  44  45 0
 3-21G
 ****


