%nproc=1
%NoSave
%Mem=1900MB
#P OB98/GEN NMR

erre ene a

0 1
  C      -28.453     -91.867     -28.994
  O      -29.431     -92.174     -28.024
  H      -28.869     -92.073     -29.985
  H      -27.568     -92.492     -28.851
  H      -28.175     -90.811     -28.945
  P      -29.129     -91.837     -26.486
  C      -27.960     -93.961     -25.613
  O      -29.177     -93.227     -25.688
  C      -28.256     -95.419     -25.271
  O      -28.761     -95.525     -23.922
  C      -29.312     -96.061     -26.162
  O      -28.778     -96.374     -27.432
  C      -29.703     -97.259     -25.309
  O      -28.740     -98.317     -25.432
  C      -29.664     -96.652     -23.886
  N      -30.987     -96.255     -23.401
  C      -31.436     -96.894     -22.250
  O      -30.784     -97.750     -21.656
  N      -32.691     -96.546     -21.828
  C      -33.551     -95.712     -22.483
  O      -34.737     -95.600     -22.191
  C      -32.995     -95.010     -23.648
  C      -31.763     -95.320     -24.058
  O      -29.945     -90.739     -25.891
  O      -27.568     -91.476     -26.482
  H      -27.463     -90.506     -26.456
  H      -28.973     -98.982     -24.755
  H      -33.047     -97.039     -21.021
  H      -33.624     -94.290     -24.157
  H      -31.344     -94.837     -24.934
  H      -29.244     -97.374     -23.174
  H      -30.672     -97.674     -25.594
  H      -30.179     -95.397     -26.257
  H      -27.313     -95.980     -25.323
  H      -27.337     -93.522     -24.829
  H      -27.437     -93.885     -26.571
  P      -29.553     -95.983     -28.775
  C      -30.587     -98.270     -29.284
  O      -29.645     -97.291     -29.697
  O      -29.034     -94.769     -29.474
  O      -31.071     -95.764     -28.306
  H      -31.375     -94.887     -28.607
  H      -30.566     -99.095     -29.965
  H      -31.567     -97.840     -29.274
  H      -30.338     -98.613     -28.301

 6  7  8  9  10  11  12  13  14  15  16  27  31  32  33  34  35 0
 6-311+G(2d,p)
 ****
 36  37 0
 6-311+G(2d,p)
 ****
 1  2  3  4  5  17  18  19  20  21  22  23  24  25 0
 3-21G
 ****
 26  28  29  30  38  39  40  41  42  43  44  45 0
 3-21G
 ****


