%nproc=1
%NoSave
%Mem=1900MB
#P OB98/GEN NMR

erre ene a

0 1
  C     -183.587     536.938     294.876
  O     -182.531     536.790     293.954
  H     -184.391     536.253     294.597
  H     -183.967     537.963     294.842
  H     -183.260     536.696     295.891
  P     -181.103     537.426     294.300
  C     -180.809     538.458     291.949
  O     -180.293     537.552     292.920
  C     -180.883     537.789     290.565
  O     -182.037     536.903     290.533
  C     -181.068     538.824     289.451
  O     -180.524     538.374     288.208
  C     -182.585     538.906     289.324
  O     -183.012     539.392     288.049
  C     -182.993     537.465     289.611
  N     -187.989     537.114     288.633
  C     -186.945     537.429     287.776
  N     -187.291     537.685     286.491
  N     -185.700     537.508     288.149
  C     -185.521     537.304     289.480
  C     -186.466     537.011     290.432
  C     -187.844     536.888     289.996
  O     -188.806     536.633     290.718
  N     -185.902     536.877     291.675
  C     -184.617     537.104     291.480
  N     -184.327     537.337     290.156
  O     -180.331     536.236     295.044
  O     -181.132     538.666     295.137
  H     -182.785     540.337     288.013
  H     -179.612     536.589     295.594
  H     -188.926     537.042     288.287
  H     -183.858     537.082     292.249
  H     -182.953     536.863     288.692
  H     -182.949     539.606     290.075
  H     -188.252     537.825     286.209
  H     -180.641     539.792     289.700
  H     -186.609     538.211     285.932
  H     -179.997     537.157     290.409
  H     -180.141     539.320     291.922
  H     -181.795     538.815     292.256
  P     -179.868     539.464     287.234
  C     -179.776     538.694     284.697
  O     -179.187     538.730     285.983
  O     -178.623     540.020     288.069
  O     -180.791     540.563     286.813
  H     -178.750     540.965     288.276
  H     -179.141     538.151     284.029
  H     -179.903     539.693     284.335
  H     -180.729     538.211     284.755

 6  7  8  9  10  11  12  13  14  15  26  29  33  34 0
 6-311+G(2d,p)
 ****
 36  38  39  40  41 0
 6-311+G(2d,p)
 ****
 1  2  3  4  5  16  17  18  19  20  21  22  23  24  25 0
 3-21G
 ****
 27  28  30  31  32  35  37  42  43  44  45  46  47 0
 3-21G
 ****
 48  49 0
 3-21G
 ****


