%nproc=1
%NoSave
%Mem=1900MB
#P OB98/GEN NMR

erre ene a

0 1
  C      -36.922      73.825     184.007
  O      -36.389      75.080     184.382
  H      -37.585      73.966     183.150
  H      -37.500      73.405     184.833
  H      -36.121      73.135     183.723
  P      -35.210      75.083     185.467
  C      -35.059      75.541     188.021
  O      -35.898      75.388     186.887
  C      -35.907      75.635     189.290
  O      -36.575      76.929     189.305
  C      -36.993      74.556     189.395
  O      -37.129      74.183     190.770
  C      -38.247      75.287     188.951
  O      -39.453      74.708     189.430
  C      -37.981      76.685     189.516
  N      -38.794      77.716     188.875
  C      -40.055      77.961     189.411
  O      -40.498      77.438     190.432
  N      -40.825      78.860     188.719
  C      -40.478      79.499     187.566
  O      -41.223      80.278     186.981
  C      -39.140      79.192     187.043
  C      -38.374      78.326     187.710
  O      -34.423      76.437     185.138
  O      -34.319      73.886     185.452
  H      -33.721      76.273     184.481
  H      -40.187      75.294     189.157
  H      -41.741      79.049     189.094
  H      -38.834      79.672     186.123
  H      -37.388      78.061     187.340
  H      -38.156      76.699     190.599
  H      -38.296      75.312     187.856
  H      -36.800      73.664     188.788
  H      -35.242      75.607     190.161
  H      -34.470      76.458     187.918
  H      -34.374      74.687     188.082
  P      -36.347      72.870     191.260
  C      -37.158      70.487     191.987
  O      -37.452      71.711     191.326
  O      -36.058      73.235     192.789
  O      -35.137      72.574     190.440
  H      -36.774      73.751     193.199
  H      -38.007      69.838     191.931
  H      -36.926      70.683     193.013
  H      -36.320      70.019     191.515

 6  7  8  9  10  11  12  13  14  15  16  27  31  32  33  34  35 0
 6-311+G(2d,p)
 ****
 36  37 0
 6-311+G(2d,p)
 ****
 1  2  3  4  5  17  18  19  20  21  22  23  24  25 0
 3-21G
 ****
 26  28  29  30  38  39  40  41  42  43  44  45 0
 3-21G
 ****


