%nproc=1
%NoSave
%Mem=1900MB
#P OB98/GEN NMR

erre ene a

0 1
  C      -89.657     237.729    -115.405
  O      -89.604     237.295    -116.770
  P      -88.632     237.959    -117.859
  C      -90.219     239.793    -118.737
  O      -89.013     239.505    -118.036
  C      -90.400     241.298    -118.957
  O      -90.466     241.990    -117.697
  C      -89.273     241.970    -119.731
  O      -89.361     241.684    -121.115
  C      -89.501     243.434    -119.365
  O      -90.524     244.019    -120.187
  C      -89.970     243.327    -117.899
  N      -88.914     243.656    -116.951
  C      -89.320     244.001    -115.659
  O      -90.517     244.075    -115.380
  N      -88.355     244.280    -114.720
  C      -87.105     244.287    -115.062
  N      -86.195     244.562    -114.089
  C      -86.641     244.018    -116.436
  C      -87.590     243.710    -117.318
  O      -88.551     237.201    -119.145
  O      -87.193     238.010    -117.154
  H      -90.267     243.845    -121.113
  H      -86.501     237.925    -117.836
  H      -85.592     244.060    -116.687
  H      -87.335     243.489    -118.348
  H      -90.820     243.996    -117.722
  H      -88.601     244.042    -119.490
  H      -88.305     241.643    -119.335
  H      -91.360     241.448    -119.473
  H      -86.546     244.737    -113.156
  H      -91.059     239.411    -118.145
  H      -85.200     244.591    -114.249
  H      -90.203     239.269    -119.699
  P      -88.650     240.375    -121.702
  C      -86.408     241.480    -122.284
  O      -87.074     240.533    -121.469
  O      -89.054     239.987    -123.087
  O      -89.045     239.228    -120.651
  H      -89.110     238.377    -121.123
  H      -85.485     241.783    -121.786
  H      -87.030     242.363    -122.451
  H      -86.161     241.020    -123.245
  H      -90.375     237.141    -114.872
  H      -89.943     238.760    -115.369
  H      -88.693     237.610    -114.955

 3  4  5  6  7  8  9  10  11  12  13  23  27  28  29  30  32 0
 6-311+G(2d,p)
 ****
 34  35 0
 6-311+G(2d,p)
 ****
 1  2  14  15  16  17  18  19  20  21  22  24  25  26 0
 3-21G
 ****
 31  33  36  37  38  39  40  41  42  43  44  45  46 0
 3-21G
 ****


