%nproc=1
%NoSave
%Mem=1900MB
#P OB98/GEN NMR

erre ene a

0 1
  C     -590.612    -211.355      27.658
  O     -592.011    -211.319      27.485
  H     -590.162    -210.632      26.973
  H     -590.218    -212.345      27.420
  H     -590.348    -211.081      28.682
  P     -592.917    -212.419      28.228
  C     -592.736    -214.237      26.426
  O     -592.336    -213.839      27.733
  C     -592.265    -215.655      26.104
  O     -592.938    -216.602      26.975
  C     -592.535    -216.085      24.657
  O     -591.364    -216.697      24.114
  C     -593.654    -217.108      24.788
  O     -593.686    -218.009      23.688
  C     -593.329    -217.719      26.158
  N     -594.456    -218.442      26.736
  C     -594.349    -219.834      26.783
  O     -593.358    -220.395      26.312
  N     -595.381    -220.566      27.321
  C     -596.452    -219.957      27.730
  N     -597.438    -220.739      28.246
  C     -596.623    -218.496      27.662
  C     -595.597    -217.802      27.165
  O     -594.387    -212.245      28.043
  O     -592.451    -212.354      29.759
  H     -594.293    -218.751      23.909
  H     -593.156    -212.748      30.333
  H     -597.540    -218.037      28.010
  H     -595.636    -216.725      27.085
  H     -592.478    -218.408      26.086
  H     -594.621    -216.588      24.832
  H     -592.828    -215.259      24.009
  H     -591.197    -215.724      26.345
  H     -597.278    -221.739      28.276
  H     -592.326    -213.523      25.701
  H     -598.319    -220.380      28.589
  H     -593.831    -214.206      26.377
  P     -590.478    -215.779      23.132
  C     -591.085    -217.179      21.041
  O     -591.089    -215.901      21.654
  O     -589.090    -216.573      23.044
  O     -590.290    -214.384      23.633
  H     -588.432    -216.163      23.629
  H     -591.520    -217.108      20.066
  H     -591.654    -217.862      21.637
  H     -590.078    -217.532      20.958

 6  7  8  9  10  11  12  13  14  15  16  26  30  31  32  33  35 0
 6-311+G(2d,p)
 ****
 37  38 0
 6-311+G(2d,p)
 ****
 1  2  3  4  5  17  18  19  20  21  22  23  24  25 0
 3-21G
 ****
 27  28  29  34  36  39  40  41  42  43  44  45  46 0
 3-21G
 ****


