%nproc=1
%NoSave
%Mem=1900MB
#P OB98/GEN NMR

erre ene a

0 1
  C     1054.949    -330.196      52.361
  O     1054.887    -331.526      51.885
  H     1055.375    -330.202      53.369
  H     1053.940    -329.774      52.410
  H     1055.579    -329.581      51.713
  P     1054.507    -331.739      50.340
  C     1056.728    -332.443      49.185
  O     1055.511    -332.868      49.775
  C     1057.807    -333.516      49.386
  O     1058.276    -333.444      50.768
  C     1057.312    -334.944      49.137
  O     1058.378    -335.696      48.542
  C     1057.062    -335.466      50.547
  O     1057.094    -336.887      50.649
  C     1058.186    -334.777      51.322
  N     1057.938    -334.735      52.760
  C     1058.703    -335.563      53.567
  O     1059.633    -336.268      53.174
  N     1058.370    -335.564      54.902
  C     1057.358    -334.851      55.479
  O     1057.097    -334.912      56.675
  C     1056.581    -334.000      54.569
  C     1056.892    -333.980      53.270
  O     1055.034    -330.397      49.653
  O     1053.064    -332.000      50.060
  H     1054.338    -329.707      49.653
  H     1058.038    -337.163      50.678
  H     1058.917    -336.164      55.506
  H     1055.753    -333.436      54.989
  H     1056.322    -333.376      52.573
  H     1059.144    -335.273      51.129
  H     1056.082    -335.122      50.903
  H     1056.415    -335.009      48.511
  H     1058.661    -333.277      48.743
  H     1057.063    -331.515      49.662
  H     1056.566    -332.261      48.117
  P     1057.992    -337.100      47.855
  C     1059.166    -336.653      45.561
  O     1059.151    -337.375      46.788
  O     1056.722    -336.674      46.977
  O     1057.744    -338.186      48.853
  H     1056.797    -335.772      46.619
  H     1060.005    -336.964      44.975
  H     1059.241    -335.605      45.765
  H     1058.263    -336.848      45.022

 6  7  8  9  10  11  12  13  14  15  16  27  31  32  33  34  35 0
 6-311+G(2d,p)
 ****
 36  37 0
 6-311+G(2d,p)
 ****
 1  2  3  4  5  17  18  19  20  21  22  23  24  25 0
 3-21G
 ****
 26  28  29  30  38  39  40  41  42  43  44  45 0
 3-21G
 ****


