%nproc=1
%NoSave
%Mem=1900MB
#P OB98/GEN NMR

erre ene a

0 1
  C      -44.816    -545.386     459.994
  O      -43.466    -545.110     460.184
  P      -42.412    -544.995     458.992
  C      -42.263    -547.535     458.442
  O      -41.577    -546.388     458.899
  C      -41.330    -548.620     457.851
  O      -40.781    -548.138     456.591
  C      -40.122    -548.823     458.798
  O      -40.233    -549.672     459.913
  C      -38.964    -549.118     457.868
  O      -38.688    -550.519     457.750
  C      -39.418    -548.537     456.531
  N      -34.856    -546.856     455.010
  C      -35.314    -548.138     455.092
  N      -34.371    -549.110     454.908
  N      -36.575    -548.469     455.316
  C      -37.377    -547.390     455.585
  C      -37.020    -546.051     455.497
  C      -35.651    -545.707     455.208
  O      -35.178    -544.577     455.195
  N      -38.067    -545.230     455.893
  C      -39.014    -546.071     456.201
  N      -38.633    -547.388     456.074
  O      -41.655    -543.702     458.861
  O      -43.381    -545.126     457.702
  H      -37.966    -550.622     457.099
  H      -43.017    -544.554     456.988
  H      -33.866    -546.671     454.903
  H      -39.980    -545.789     456.590
  H      -39.331    -549.301     455.742
  H      -38.015    -548.657     458.251
  H      -33.406    -548.913     454.877
  H      -39.909    -547.837     459.244
  H      -34.657    -550.063     455.154
  H      -41.873    -549.541     457.619
  H      -42.984    -547.210     457.684
  H      -42.858    -547.977     459.262
  P      -40.092    -549.266     461.457
  C      -37.527    -549.318     461.472
  O      -38.704    -549.875     462.003
  O      -41.169    -550.154     462.211
  O      -40.295    -547.808     461.728
  H      -41.401    -549.718     463.071
  H      -36.674    -549.971     461.656
  H      -37.315    -548.355     461.936
  H      -37.635    -549.174     460.387
  H      -45.312    -545.411     460.942
  H      -44.922    -546.335     459.511
  H      -45.253    -544.624     459.383

 3  4  5  6  7  8  9  10  11  12  23  26  30  31 0
 6-311+G(2d,p)
 ****
 33  35  36  37  38 0
 6-311+G(2d,p)
 ****
 1  2  13  14  15  16  17  18  19  20  21  22  24  25 0
 3-21G
 ****
 27  28  29  32  34  39  40  41  42  43  44  45  46  47  48  49 0
 3-21G
 ****


